40
Properties=species:S:1:pos:R:3 #=T CELL(abcABC):=T 1.889726e+02=T 90.00000=T Traj:=T positionsangstrom=T Step:=T 0=T Bead:=T pbc="F F F"
C      -43.65040000     -30.06510000     -68.11070000
C      -44.53610000     -30.99980000     -68.57670000
C      -44.08460000     -32.24030000     -69.01490000
C      -42.80600000     -32.68000000     -68.72190000
C      -41.89010000     -31.67510000     -68.30560000
C      -42.24540000     -30.41070000     -68.00800000
H      -44.03080000     -29.10710000     -67.91840000
H      -44.83200000     -33.01400000     -69.41420000
H      -40.82460000     -31.98470000     -68.15350000
H      -41.50460000     -29.67460000     -67.72420000
C      -42.40100000     -34.13260000     -68.97610000
H      -43.20670000     -34.77530000     -68.76280000
H      -41.51450000     -34.24400000     -68.41440000
C      -45.92070000     -30.57790000     -68.96450000
H      -46.23390000     -29.60730000     -68.56500000
H      -46.00120000     -30.46200000     -70.05240000
S      -41.86830000     -34.50110000     -70.77300000
S      -47.16140000     -31.91760000     -68.60910000
C      -43.54960000     -34.67870000     -71.48740000
H      -43.50960000     -35.65640000     -72.04720000
H      -44.24460000     -34.87920000     -70.67100000
C      -47.55900000     -32.48760000     -70.38530000
H      -47.02540000     -31.75180000     -71.04570000
H      -48.72320000     -32.40120000     -70.51440000
C      -47.15790000     -33.89610000     -70.68300000
H      -46.07940000     -34.13910000     -70.50640000
H      -47.63010000     -34.50040000     -69.95150000
C      -44.10410000     -33.52350000     -72.37280000
H      -43.31530000     -32.91950000     -72.81620000
H      -44.65270000     -32.82080000     -71.71710000
C      -45.06940000     -34.01040000     -73.40400000
C      -44.68550000     -34.22160000     -74.73140000
C      -46.48490000     -34.39670000     -73.19930000
H      -43.67530000     -33.96670000     -75.13800000
C      -47.06860000     -34.84800000     -74.35480000
C      -47.43440000     -34.38130000     -72.08730000
C      -48.71210000     -34.68020000     -72.52160000
S      -45.94400000     -34.89810000     -75.72260000
S      -48.84590000     -35.14220000     -74.20870000
H      -49.60760000     -34.66540000     -71.89270000
