40
Properties=species:S:1:pos:R:3 #=T CELL(abcABC):=T 1.889726e+02=T 90.00000=T Traj:=T positionsangstrom=T Step:=T 0=T Bead:=T pbc="F F F"
C      -43.49780000     -29.99710000     -68.47020000
C      -44.43610000     -31.02290000     -68.68040000
C      -43.95210000     -32.32510000     -68.93310000
C      -42.60000000     -32.62790000     -68.87440000
C      -41.72800000     -31.57790000     -68.55740000
C      -42.13490000     -30.22290000     -68.41250000
H      -43.90570000     -28.96790000     -68.42850000
H      -44.69810000     -33.07940000     -69.20190000
H      -40.65150000     -31.89540000     -68.56990000
H      -41.41290000     -29.44710000     -68.21930000
C      -42.07900000     -34.01620000     -69.00520000
H      -42.60130000     -34.79580000     -68.37810000
H      -41.08420000     -34.16100000     -68.64800000
C      -45.90560000     -30.66270000     -68.62690000
H      -46.06650000     -30.08400000     -67.67060000
H      -46.12300000     -30.02270000     -69.46720000
S      -41.97120000     -34.59980000     -70.80330000
S      -47.20550000     -31.96900000     -68.59610000
C      -43.63180000     -34.89590000     -71.51150000
H      -43.49570000     -35.60240000     -72.32570000
H      -44.32420000     -35.29850000     -70.79110000
C      -47.65820000     -32.35930000     -70.34530000
H      -47.17250000     -31.71880000     -71.02330000
H      -48.67220000     -32.23540000     -70.55380000
C      -47.30920000     -33.85210000     -70.61220000
H      -46.21970000     -33.97190000     -70.46240000
H      -47.85220000     -34.51130000     -69.89100000
C      -44.20360000     -33.60500000     -72.19800000
H      -43.34160000     -32.90520000     -72.47970000
H      -44.74490000     -33.00200000     -71.46260000
C      -45.14330000     -33.93340000     -73.31060000
C      -44.67660000     -34.22500000     -74.58770000
C      -46.58200000     -34.20450000     -73.18130000
H      -43.63190000     -34.22500000     -74.94800000
C      -47.17020000     -34.70230000     -74.37300000
C      -47.54080000     -34.27790000     -72.06300000
C      -48.76620000     -34.78650000     -72.47660000
S      -46.01730000     -34.78680000     -75.65970000
S      -48.78540000     -35.32190000     -74.16590000
H      -49.63740000     -34.97660000     -71.85840000
