40
Properties=species:S:1:pos:R:3 #=T CELL(abcABC):=T 1.889726e+02=T 90.00000=T Traj:=T positionsangstrom=T Step:=T 0=T Bead:=T pbc="F F F"
C      -44.12700000     -30.34550000     -67.63850000
C      -44.98640000     -31.25180000     -68.19050000
C      -44.53860000     -32.52500000     -68.52450000
C      -43.14480000     -32.83340000     -68.39170000
C      -42.24330000     -31.95090000     -67.78030000
C      -42.80650000     -30.73820000     -67.35500000
H      -44.44430000     -29.33020000     -67.48810000
H      -45.20920000     -33.24700000     -69.06700000
H      -41.25770000     -32.35450000     -67.52570000
H      -42.14350000     -30.09200000     -66.86470000
C      -42.71490000     -34.21110000     -68.89570000
H      -43.57980000     -34.89850000     -69.05130000
H      -41.89010000     -34.58190000     -68.28970000
C      -46.44180000     -30.83050000     -68.46240000
H      -46.93620000     -30.44450000     -67.55990000
H      -46.36750000     -29.98530000     -69.22070000
S      -41.79170000     -33.85550000     -70.52140000
S      -47.69270000     -32.13630000     -68.93690000
C      -42.92360000     -34.57020000     -71.75290000
H      -42.35980000     -34.91560000     -72.57690000
H      -43.41730000     -35.40360000     -71.36790000
C      -47.29540000     -32.53690000     -70.65660000
H      -46.48050000     -31.99510000     -71.06560000
H      -48.24060000     -32.15070000     -71.24330000
C      -47.04880000     -34.06770000     -70.89390000
H      -46.03990000     -34.24850000     -70.59720000
H      -47.70300000     -34.58820000     -70.28460000
C      -44.01380000     -33.49280000     -72.29080000
H      -43.42950000     -32.64730000     -72.50460000
H      -44.61980000     -33.16730000     -71.45850000
C      -44.86480000     -33.98800000     -73.42950000
C      -44.42220000     -34.11540000     -74.74540000
C      -46.32170000     -34.24590000     -73.35360000
H      -43.32910000     -33.95790000     -75.03260000
C      -46.80730000     -34.43040000     -74.66360000
C      -47.29360000     -34.51620000     -72.34170000
C      -48.48130000     -35.09930000     -72.85880000
S      -45.57440000     -34.40720000     -75.94910000
S      -48.33650000     -35.27960000     -74.59050000
H      -49.36580000     -35.42550000     -72.35820000
