40
Properties=species:S:1:pos:R:3 #=T CELL(abcABC):=T 1.889726e+02=T 90.00000=T Traj:=T positionsangstrom=T Step:=T 0=T Bead:=T pbc="F F F"
C      -43.79190000     -30.27180000     -67.72080000
C      -44.66040000     -31.07340000     -68.44540000
C      -44.13100000     -32.34330000     -68.85150000
C      -42.83670000     -32.76290000     -68.58600000
C      -42.01340000     -31.92570000     -67.80780000
C      -42.52790000     -30.72860000     -67.33020000
H      -44.03920000     -29.24980000     -67.32950000
H      -44.77200000     -32.93810000     -69.39560000
H      -40.98480000     -32.11330000     -67.54270000
H      -41.95780000     -30.11480000     -66.65700000
C      -42.37300000     -34.18820000     -69.06790000
H      -43.21690000     -34.97310000     -68.98640000
H      -41.50190000     -34.52000000     -68.50570000
C      -45.96950000     -30.56360000     -69.01060000
H      -46.25900000     -29.55770000     -68.48360000
H      -45.79650000     -30.31120000     -70.13010000
S      -41.78990000     -34.08090000     -70.79230000
S      -47.39650000     -31.72100000     -68.87100000
C      -43.18050000     -34.80690000     -71.80980000
H      -42.78650000     -35.39750000     -72.64520000
H      -43.74380000     -35.46000000     -71.13690000
C      -47.63750000     -32.39890000     -70.61290000
H      -46.90740000     -31.79270000     -71.26060000
H      -48.66450000     -32.20000000     -70.98870000
C      -47.36580000     -33.91940000     -70.74140000
H      -46.41400000     -34.13280000     -70.26520000
H      -48.01950000     -34.44050000     -70.09970000
C      -44.08310000     -33.64480000     -72.28490000
H      -43.45250000     -32.86420000     -72.61820000
H      -44.58210000     -33.11140000     -71.49990000
C      -45.02360000     -34.18470000     -73.33860000
C      -44.59980000     -34.16240000     -74.64930000
C      -46.40040000     -34.55710000     -73.15110000
H      -43.61070000     -33.99530000     -75.05600000
C      -46.93370000     -34.97910000     -74.40000000
C      -47.45790000     -34.49410000     -72.14960000
C      -48.72170000     -34.82780000     -72.66300000
S      -45.81210000     -34.82040000     -75.74210000
S      -48.69890000     -35.07090000     -74.40650000
H      -49.64320000     -34.79710000     -72.15290000
