40
Properties=species:S:1:pos:R:3 #=T CELL(abcABC):=T 1.889726e+02=T 90.00000=T Traj:=T positionsangstrom=T Step:=T 0=T Bead:=T pbc="F F F"
C      -43.80930000     -30.29660000     -67.69370000
C      -44.69490000     -31.08010000     -68.49970000
C      -44.17030000     -32.29380000     -68.99960000
C      -42.91830000     -32.86320000     -68.59310000
C      -42.18360000     -32.10940000     -67.73340000
C      -42.60480000     -30.84330000     -67.27550000
H      -44.08660000     -29.34090000     -67.30000000
H      -44.90520000     -32.88290000     -69.68540000
H      -41.22190000     -32.42370000     -67.25290000
H      -41.93680000     -30.28160000     -66.59070000
C      -42.41970000     -34.21360000     -69.12730000
H      -43.24670000     -34.88640000     -69.05870000
H      -41.71300000     -34.69500000     -68.42530000
C      -46.04520000     -30.55830000     -68.87710000
H      -46.35940000     -29.78420000     -68.22600000
H      -45.94700000     -30.10630000     -69.86050000
S      -41.71830000     -34.10270000     -70.84400000
S      -47.34960000     -31.80510000     -68.89340000
C      -43.17070000     -34.56970000     -71.79340000
H      -42.79960000     -35.09530000     -72.71360000
H      -43.68760000     -35.37400000     -71.19840000
C      -47.42330000     -32.45330000     -70.64460000
H      -46.61290000     -31.98720000     -71.18180000
H      -48.38730000     -32.06660000     -71.12260000
C      -47.30780000     -34.02640000     -70.71280000
H      -46.33350000     -34.33340000     -70.30660000
H      -48.12490000     -34.55700000     -70.16950000
C      -44.15330000     -33.45220000     -72.25170000
H      -43.54860000     -32.65440000     -72.77090000
H      -44.81150000     -33.18850000     -71.40310000
C      -45.04280000     -33.94330000     -73.37630000
C      -44.54300000     -34.22150000     -74.61080000
C      -46.47090000     -34.21360000     -73.29910000
H      -43.47450000     -34.26730000     -74.99270000
C      -47.01110000     -34.71700000     -74.49090000
C      -47.48480000     -34.32990000     -72.18300000
C      -48.68360000     -34.76270000     -72.64740000
S      -45.76390000     -34.83270000     -75.71410000
S      -48.68890000     -35.26390000     -74.30380000
H      -49.65920000     -34.68530000     -72.05430000
