40
Properties=species:S:1:pos:R:3 #=T CELL(abcABC):=T 1.889726e+02=T 90.00000=T Traj:=T positionsangstrom=T Step:=T 0=T Bead:=T pbc="F F F"
C      -43.78470000     -30.19200000     -67.87920000
C      -44.61530000     -31.09610000     -68.55600000
C      -44.11960000     -32.42680000     -68.79430000
C      -42.79190000     -32.74910000     -68.59080000
C      -42.04900000     -31.84290000     -67.86660000
C      -42.53870000     -30.60880000     -67.49270000
H      -44.09360000     -29.11960000     -67.67860000
H      -44.78020000     -33.14290000     -69.19930000
H      -41.04720000     -32.04590000     -67.63440000
H      -41.90190000     -29.81100000     -67.06850000
C      -42.22140000     -34.13240000     -68.91520000
H      -42.82800000     -34.98480000     -68.85350000
H      -41.36450000     -34.33660000     -68.29000000
C      -45.97110000     -30.58780000     -69.07140000
H      -46.29690000     -29.72850000     -68.56990000
H      -45.96350000     -30.29070000     -70.06450000
S      -41.67950000     -34.15450000     -70.65950000
S      -47.37940000     -31.82640000     -68.88230000
C      -43.08450000     -34.77390000     -71.64360000
H      -42.63010000     -35.33950000     -72.46340000
H      -43.71570000     -35.45920000     -70.99450000
C      -47.56950000     -32.44940000     -70.59320000
H      -46.81450000     -31.90990000     -71.22840000
H      -48.53930000     -32.28980000     -70.94040000
C      -47.19290000     -33.87020000     -70.76320000
H      -46.18540000     -34.11040000     -70.52090000
H      -47.90820000     -34.48510000     -70.12030000
C      -44.06320000     -33.71150000     -72.29200000
H      -43.53260000     -32.84340000     -72.76560000
H      -44.56170000     -33.23900000     -71.41630000
C      -45.05970000     -34.14000000     -73.42510000
C      -44.63780000     -34.44750000     -74.71120000
C      -46.51340000     -34.36610000     -73.26800000
H      -43.65550000     -34.33990000     -75.04250000
C      -47.08860000     -34.71500000     -74.47910000
C      -47.50390000     -34.29380000     -72.18710000
C      -48.76530000     -34.66130000     -72.61630000
S      -45.98190000     -34.80580000     -75.76960000
S      -48.73600000     -35.18440000     -74.30010000
H      -49.64430000     -34.80450000     -72.03190000
