40
Properties=species:S:1:pos:R:3 #=T CELL(abcABC):=T 1.889726e+02=T 90.00000=T Traj:=T positionsangstrom=T Step:=T 0=T Bead:=T pbc="F F F"
C      -43.90880000     -30.36920000     -67.56340000
C      -44.72120000     -31.18180000     -68.38480000
C      -44.27670000     -32.43950000     -68.81770000
C      -43.01840000     -32.91750000     -68.48700000
C      -42.20690000     -32.07660000     -67.74480000
C      -42.63800000     -30.85890000     -67.31490000
H      -44.28340000     -29.39340000     -67.18630000
H      -45.05300000     -33.16330000     -69.30310000
H      -41.23730000     -32.47560000     -67.40260000
H      -41.95440000     -30.27170000     -66.71000000
C      -42.49950000     -34.24940000     -69.02670000
H      -43.29590000     -35.00980000     -68.98000000
H      -41.57750000     -34.62920000     -68.41600000
C      -46.04890000     -30.62230000     -68.73500000
H      -46.41990000     -29.77700000     -68.06750000
H      -45.98510000     -29.96480000     -69.67150000
S      -41.82070000     -33.99290000     -70.76130000
S      -47.38710000     -31.87130000     -68.86020000
C      -43.18490000     -34.50750000     -71.95510000
H      -42.69650000     -34.92200000     -72.78640000
H      -43.73880000     -35.27160000     -71.49160000
C      -47.26420000     -32.31030000     -70.60510000
H      -46.38520000     -31.87420000     -71.18030000
H      -48.14860000     -31.90740000     -71.05170000
C      -47.26800000     -33.87500000     -70.79570000
H      -46.37140000     -34.32680000     -70.43080000
H      -48.09300000     -34.21720000     -70.17500000
C      -44.07600000     -33.34500000     -72.39040000
H      -43.45990000     -32.57710000     -72.74620000
H      -44.65700000     -32.93460000     -71.60730000
C      -45.00440000     -33.86390000     -73.46580000
C      -44.60390000     -34.06980000     -74.73370000
C      -46.36460000     -34.29220000     -73.26290000
H      -43.63050000     -33.79620000     -75.15830000
C      -46.87770000     -34.88830000     -74.39600000
C      -47.43930000     -34.29430000     -72.25670000
C      -48.59320000     -34.85720000     -72.70630000
S      -45.81600000     -34.81340000     -75.78140000
S      -48.56170000     -35.33330000     -74.41170000
H      -49.50770000     -35.04620000     -72.05040000
