40
Properties=species:S:1:pos:R:3 #=T CELL(abcABC):=T 1.889726e+02=T 90.00000=T Traj:=T positionsangstrom=T Step:=T 0=T Bead:=T pbc="F F F"
C      -46.20240000     -32.91760000     -73.92260000
C      -44.87530000     -33.38950000     -74.07840000
C      -44.58680000     -34.72860000     -73.77790000
C      -45.69470000     -35.57180000     -73.59720000
C      -46.98140000     -35.07730000     -73.28910000
C      -47.23830000     -33.76930000     -73.53990000
H      -46.42870000     -31.89380000     -74.05600000
H      -43.58640000     -35.10850000     -73.94760000
H      -47.86360000     -35.70770000     -73.12420000
H      -48.18830000     -33.18760000     -73.25900000
C      -45.34930000     -37.02480000     -73.34720000
H      -44.59940000     -37.35100000     -74.06860000
H      -46.26720000     -37.65080000     -73.55820000
C      -43.84890000     -32.38510000     -74.43390000
H      -42.91650000     -32.88750000     -74.70860000
H      -44.16330000     -31.82270000     -75.28760000
S      -44.66920000     -37.40930000     -71.69180000
S      -43.80260000     -30.94180000     -73.28810000
C      -45.65300000     -36.37500000     -70.56550000
H      -46.55450000     -35.95580000     -71.00620000
H      -45.91530000     -36.87670000     -69.63380000
C      -42.60960000     -31.26160000     -71.97460000
H      -42.44410000     -30.36210000     -71.41320000
H      -41.80020000     -31.58610000     -72.51540000
C      -43.24070000     -32.29560000     -71.06290000
H      -43.57030000     -33.28950000     -71.62490000
H      -42.50150000     -32.65900000     -70.32010000
C      -44.85250000     -35.15490000     -70.16060000
H      -44.43130000     -34.73980000     -71.11380000
H      -44.03590000     -35.43980000     -69.49100000
C      -45.64480000     -34.08030000     -69.43920000
C      -46.77580000     -34.40190000     -68.76810000
C      -45.21370000     -32.67590000     -69.46090000
H      -47.17370000     -35.44210000     -68.72520000
C      -46.17750000     -31.94070000     -68.73780000
C      -44.38310000     -31.79030000     -70.23620000
C      -44.75520000     -30.46000000     -70.09960000
S      -47.42950000     -32.93420000     -68.05850000
S      -46.14990000     -30.24460000     -69.02230000
H      -44.14900000     -29.64080000     -70.54530000
