40
Properties=species:S:1:pos:R:3 #=T CELL(abcABC):=T 1.889726e+02=T 90.00000=T Traj:=T positionsangstrom=T Step:=T 0=T Bead:=T pbc="F F F"
C      -43.44820000     -33.86260000     -73.66450000
C      -44.72740000     -33.85630000     -74.19040000
C      -45.45440000     -32.66100000     -74.18310000
C      -44.94170000     -31.45840000     -73.58540000
C      -43.55200000     -31.44830000     -73.17470000
C      -42.87750000     -32.70090000     -73.11530000
H      -42.87540000     -34.77790000     -73.56220000
H      -46.56070000     -32.61560000     -74.57820000
H      -43.22460000     -30.49710000     -72.70830000
H      -41.93220000     -32.78980000     -72.66370000
C      -45.68840000     -30.14640000     -73.57690000
H      -46.39870000     -30.06790000     -74.43400000
H      -45.03650000     -29.25780000     -73.75260000
C      -45.28320000     -35.19160000     -74.66950000
H      -46.02750000     -35.04180000     -75.51320000
H      -44.44990000     -35.82550000     -74.98740000
S      -46.54160000     -29.91550000     -71.91890000
S      -46.06420000     -36.23970000     -73.27150000
C      -47.28880000     -31.53410000     -71.59260000
H      -48.30630000     -31.46910000     -72.00720000
H      -46.79700000     -32.31030000     -72.15570000
C      -46.86730000     -34.92070000     -72.14260000
H      -47.73610000     -34.38430000     -72.68400000
H      -46.20570000     -34.07570000     -72.02480000
C      -47.26740000     -35.38860000     -70.79620000
H      -48.13910000     -34.75320000     -70.59940000
H      -47.55220000     -36.43580000     -70.74460000
C      -47.24100000     -31.94430000     -70.05840000
H      -47.97670000     -32.68530000     -69.87530000
H      -47.50630000     -31.10230000     -69.37570000
C      -45.92220000     -32.48760000     -69.52150000
C      -45.02190000     -31.65800000     -68.91880000
C      -45.57770000     -33.90540000     -69.41940000
H      -44.91400000     -30.57740000     -68.86930000
C      -44.32570000     -34.07700000     -68.84050000
C      -46.22130000     -35.13380000     -69.76680000
C      -45.49710000     -36.24480000     -69.36020000
S      -43.66630000     -32.56860000     -68.15280000
S      -43.95930000     -35.79890000     -68.63070000
H      -45.66060000     -37.32720000     -69.61080000
