40
Properties=species:S:1:pos:R:3 #=T CELL(abcABC):=T 1.889726e+02=T 90.00000=T Traj:=T positionsangstrom=T Step:=T 0=T Bead:=T pbc="F F F"
C      -45.52410000     -31.85400000     -74.61060000
C      -44.17900000     -32.26260000     -74.44100000
C      -43.86700000     -33.57060000     -74.17870000
C      -44.89770000     -34.53880000     -74.23990000
C      -46.18060000     -34.10940000     -74.50900000
C      -46.54910000     -32.77920000     -74.68860000
H      -45.83290000     -30.86880000     -74.78170000
H      -42.83130000     -33.93660000     -73.94790000
H      -46.90110000     -34.92400000     -74.66590000
H      -47.59400000     -32.69120000     -74.99440000
C      -44.62110000     -36.00380000     -74.17730000
H      -43.51900000     -36.14780000     -74.10800000
H      -44.82290000     -36.41790000     -75.21020000
C      -43.13210000     -31.21060000     -74.41660000
H      -42.30280000     -31.53550000     -75.02340000
H      -43.53570000     -30.27810000     -74.89980000
S      -45.61810000     -36.93670000     -72.93670000
S      -42.44430000     -30.94490000     -72.74860000
C      -45.33250000     -35.86020000     -71.42230000
H      -45.07020000     -36.47790000     -70.47770000
H      -44.45290000     -35.22790000     -71.59530000
C      -44.14270000     -30.72740000     -71.73540000
H      -44.89810000     -30.10630000     -72.31620000
H      -43.73810000     -30.22320000     -70.86140000
C      -44.82590000     -32.10000000     -71.27410000
H      -45.68470000     -32.25140000     -71.91910000
H      -44.12360000     -32.90030000     -71.53940000
C      -46.64580000     -34.97790000     -71.14570000
H      -47.44790000     -35.70520000     -71.18710000
H      -46.77730000     -34.14610000     -71.86590000
C      -46.78300000     -34.43100000     -69.75770000
C      -47.56280000     -35.09600000     -68.79150000
C      -46.08160000     -33.28810000     -69.20600000
H      -48.13460000     -36.02500000     -68.90850000
C      -46.26000000     -33.17100000     -67.79120000
C      -45.29710000     -32.19540000     -69.75470000
C      -44.94800000     -31.23710000     -68.84890000
S      -47.22400000     -34.49270000     -67.16970000
S      -45.56670000     -31.71590000     -67.24350000
H      -44.29900000     -30.43850000     -68.92230000
