40
Properties=species:S:1:pos:R:3 #=T CELL(abcABC):=T 1.889726e+02=T 90.00000=T Traj:=T positionsangstrom=T Step:=T 0=T Bead:=T pbc="F F F"
C      -45.11270000     -32.11580000     -73.77880000
C      -45.05240000     -31.13520000     -72.72920000
C      -43.93510000     -31.13160000     -71.92090000
C      -42.78520000     -31.82820000     -72.28910000
C      -42.77430000     -32.65610000     -73.40820000
C      -43.93300000     -32.79100000     -74.14600000
H      -45.97690000     -32.26070000     -74.41790000
H      -43.86880000     -30.41950000     -71.10570000
H      -41.86270000     -33.02130000     -73.85670000
H      -44.00300000     -33.49010000     -75.00410000
C      -41.50460000     -31.50890000     -71.54190000
H      -41.30550000     -30.42640000     -71.52730000
H      -40.64280000     -31.94300000     -72.02690000
C      -46.22470000     -30.19920000     -72.58170000
H      -46.06150000     -29.54950000     -71.83440000
H      -46.31540000     -29.71870000     -73.61380000
S      -41.75280000     -32.02130000     -69.72700000
S      -47.79630000     -31.18440000     -72.38870000
C      -42.46880000     -33.72270000     -69.98560000
H      -42.35660000     -34.16350000     -70.97860000
H      -42.03750000     -34.47030000     -69.34280000
C      -48.10890000     -31.45940000     -70.62860000
H      -49.15840000     -31.82690000     -70.52280000
H      -47.98900000     -30.51540000     -70.07200000
C      -47.09610000     -32.45540000     -69.99240000
H      -46.05770000     -32.03860000     -70.14760000
H      -47.31290000     -32.35590000     -68.93860000
C      -43.98770000     -33.57990000     -69.70660000
H      -44.36230000     -32.62510000     -69.91910000
H      -44.19020000     -33.64230000     -68.58440000
C      -44.76950000     -34.74430000     -70.27020000
C      -44.24590000     -35.95980000     -70.56030000
C      -46.22680000     -34.77560000     -70.48890000
H      -43.15260000     -36.24000000     -70.54470000
C      -46.67120000     -36.07700000     -70.81430000
C      -47.31090000     -33.80410000     -70.52780000
C      -48.51110000     -34.34740000     -70.81610000
S      -45.36730000     -37.21030000     -70.96500000
S      -48.40770000     -36.14920000     -71.06960000
H      -49.52250000     -33.88380000     -70.78140000
