40
Properties=species:S:1:pos:R:3 #=T CELL(abcABC):=T 1.889726e+02=T 90.00000=T Traj:=T positionsangstrom=T Step:=T 0=T Bead:=T pbc="F F F"
C      -43.35160000     -33.99620000     -73.54300000
C      -44.57740000     -33.99810000     -74.17840000
C      -45.36010000     -32.85020000     -74.17180000
C      -44.90460000     -31.65380000     -73.64810000
C      -43.59800000     -31.61320000     -73.01520000
C      -42.85330000     -32.82500000     -73.03800000
H      -42.87270000     -34.93380000     -73.44280000
H      -46.34700000     -32.87440000     -74.69630000
H      -43.23480000     -30.63590000     -72.68310000
H      -41.85410000     -32.86040000     -72.64530000
C      -45.85130000     -30.46300000     -73.63920000
H      -46.72680000     -30.47990000     -74.26540000
H      -45.30940000     -29.58610000     -74.02230000
C      -45.26840000     -35.26130000     -74.55990000
H      -46.02570000     -35.02100000     -75.32170000
H      -44.60460000     -36.01030000     -74.93000000
S      -46.29800000     -30.02590000     -71.96040000
S      -46.16460000     -36.14140000     -73.20770000
C      -47.47520000     -31.39430000     -71.49330000
H      -48.50430000     -31.11600000     -71.71670000
H      -47.09820000     -32.16650000     -72.11630000
C      -47.09050000     -34.84430000     -72.32690000
H      -48.04830000     -34.60190000     -72.69090000
H      -46.35680000     -34.06460000     -72.39050000
C      -47.24380000     -35.34050000     -70.82760000
H      -48.10480000     -34.87680000     -70.38200000
H      -47.47880000     -36.45600000     -70.83480000
C      -47.39250000     -31.89710000     -69.99290000
H      -48.28370000     -32.56520000     -69.83070000
H      -47.66880000     -30.95750000     -69.32950000
C      -46.05420000     -32.44520000     -69.54310000
C      -45.09800000     -31.61960000     -69.00460000
C      -45.62590000     -33.84510000     -69.47760000
H      -45.27600000     -30.52220000     -68.91340000
C      -44.37900000     -33.99360000     -68.79970000
C      -46.10230000     -35.15140000     -69.86010000
C      -45.22450000     -36.19410000     -69.48100000
S      -43.64420000     -32.40710000     -68.39140000
S      -43.97090000     -35.62930000     -68.41660000
H      -45.44510000     -37.28260000     -69.57840000
