40
Properties=species:S:1:pos:R:3 #=T CELL(abcABC):=T 1.889726e+02=T 90.00000=T Traj:=T positionsangstrom=T Step:=T 0=T Bead:=T pbc="F F F"
C      -43.14390000     -34.76310000     -72.49630000
C      -44.19690000     -34.85520000     -73.42270000
C      -44.86390000     -33.63290000     -73.72030000
C      -44.47890000     -32.34830000     -73.21210000
C      -43.58770000     -32.34740000     -72.12480000
C      -42.89040000     -33.57980000     -71.80820000
H      -42.53700000     -35.67410000     -72.24510000
H      -45.73630000     -33.75020000     -74.42800000
H      -43.31230000     -31.45300000     -71.62820000
H      -42.05850000     -33.62610000     -71.12960000
C      -45.14460000     -31.10880000     -73.66590000
H      -45.78920000     -31.43660000     -74.47250000
H      -44.38200000     -30.38290000     -74.07670000
C      -44.74710000     -36.15660000     -73.87500000
H      -44.76810000     -36.17580000     -74.97160000
H      -44.07540000     -36.90260000     -73.54530000
S      -46.08760000     -30.10900000     -72.33090000
S      -46.42470000     -36.54240000     -73.19120000
C      -47.58530000     -31.19750000     -71.98850000
H      -48.47420000     -30.70530000     -72.31600000
H      -47.49050000     -32.04980000     -72.62540000
C      -47.35770000     -35.12250000     -72.39420000
H      -48.37830000     -35.35190000     -72.72020000
H      -47.03210000     -34.11500000     -72.75230000
C      -47.33060000     -35.23250000     -70.86140000
H      -48.20250000     -34.72000000     -70.38230000
H      -47.41700000     -36.29610000     -70.62120000
C      -47.77240000     -31.69250000     -70.50470000
H      -48.33220000     -32.55390000     -70.65570000
H      -48.28830000     -31.05950000     -69.88730000
C      -46.49930000     -32.09160000     -69.76370000
C      -45.78980000     -31.13510000     -69.07060000
C      -45.73910000     -33.31700000     -69.86190000
H      -46.06970000     -30.13970000     -68.88720000
C      -44.50970000     -33.25220000     -69.14760000
C      -46.00220000     -34.67660000     -70.22660000
C      -45.05250000     -35.56430000     -69.69010000
S      -44.17760000     -31.63610000     -68.69300000
S      -43.72920000     -34.71880000     -68.88330000
H      -45.07740000     -36.68380000     -69.70200000
