40
Properties=species:S:1:pos:R:3 #=T CELL(abcABC):=T 1.889726e+02=T 90.00000=T Traj:=T positionsangstrom=T Step:=T 0=T Bead:=T pbc="F F F"
C      -46.70120000     -31.41030000     -74.53760000
C      -45.38040000     -31.73480000     -74.32350000
C      -44.89200000     -33.07200000     -74.45720000
C      -45.74460000     -34.09860000     -74.81480000
C      -47.06820000     -33.77410000     -75.13580000
C      -47.55600000     -32.48670000     -74.89970000
H      -46.99170000     -30.30960000     -74.35440000
H      -43.86030000     -33.22890000     -74.15660000
H      -47.79970000     -34.48610000     -75.44110000
H      -48.54760000     -32.21680000     -75.28300000
C      -45.08600000     -35.47860000     -74.87970000
H      -44.07950000     -35.21110000     -75.06460000
H      -45.53930000     -36.07920000     -75.70040000
C      -44.38970000     -30.57760000     -73.94370000
H      -43.95500000     -30.30980000     -74.94270000
H      -44.87490000     -29.73270000     -73.44990000
S      -45.38660000     -36.65920000     -73.41930000
S      -42.92610000     -30.97810000     -72.90670000
C      -44.98100000     -35.68650000     -71.92240000
H      -44.62730000     -36.38700000     -71.18300000
H      -44.22030000     -34.95630000     -72.21960000
C      -43.72830000     -30.84510000     -71.04930000
H      -44.49910000     -30.03820000     -71.15010000
H      -42.87370000     -30.61650000     -70.38310000
C      -44.42520000     -32.15290000     -70.83180000
H      -45.39390000     -32.19880000     -71.43050000
H      -43.78380000     -32.97770000     -71.13830000
C      -46.18050000     -35.00130000     -71.14940000
H      -47.11170000     -35.56070000     -71.36160000
H      -46.39320000     -34.09470000     -71.69940000
C      -46.05160000     -34.75360000     -69.60690000
C      -46.65170000     -35.63310000     -68.72200000
C      -45.42090000     -33.60200000     -68.96650000
H      -47.03250000     -36.59130000     -69.06210000
C      -45.63760000     -33.59950000     -67.61040000
C      -44.77820000     -32.42200000     -69.42600000
C      -44.51750000     -31.55770000     -68.40950000
S      -46.51810000     -35.00430000     -67.04930000
S      -45.02710000     -32.16610000     -66.85870000
H      -43.91990000     -30.67590000     -68.50750000
