40
Properties=species:S:1:pos:R:3 #=T CELL(abcABC):=T 1.889726e+02=T 90.00000=T Traj:=T positionsangstrom=T Step:=T 0=T Bead:=T pbc="F F F"
C      -46.70660000     -31.48380000     -74.52160000
C      -45.32650000     -31.74370000     -74.26250000
C      -44.80850000     -33.03390000     -74.33410000
C      -45.65620000     -34.06210000     -74.79160000
C      -46.95680000     -33.79650000     -75.10330000
C      -47.56330000     -32.55910000     -74.92080000
H      -47.03330000     -30.43230000     -74.50260000
H      -43.76610000     -32.98480000     -74.16400000
H      -47.68270000     -34.58340000     -75.28950000
H      -48.56540000     -32.43400000     -74.88360000
C      -45.09330000     -35.48490000     -74.84200000
H      -44.03720000     -35.55880000     -74.97970000
H      -45.44730000     -36.15790000     -75.64830000
C      -44.52950000     -30.47070000     -74.13500000
H      -44.16290000     -30.05090000     -75.07860000
H      -45.15190000     -29.66130000     -73.70290000
S      -45.29790000     -36.48310000     -73.30550000
S      -43.03860000     -30.73930000     -72.88320000
C      -44.82690000     -35.46300000     -71.82410000
H      -44.39280000     -36.22820000     -71.08220000
H      -44.20420000     -34.54760000     -71.98100000
C      -43.84630000     -30.86320000     -71.25210000
H      -44.42680000     -29.98120000     -71.32800000
H      -43.05560000     -30.75900000     -70.49540000
C      -44.58680000     -32.14950000     -70.84250000
H      -45.47820000     -32.30650000     -71.52550000
H      -43.91400000     -32.89530000     -71.33340000
C      -46.22970000     -35.06180000     -71.25530000
H      -46.90180000     -35.90530000     -71.38060000
H      -46.60040000     -34.15930000     -71.77390000
C      -46.16050000     -34.76010000     -69.68260000
C      -46.79550000     -35.61600000     -68.78990000
C      -45.61320000     -33.56230000     -69.02240000
H      -47.10680000     -36.62030000     -69.02900000
C      -45.60010000     -33.73730000     -67.68260000
C      -44.78680000     -32.45360000     -69.43950000
C      -44.35170000     -31.74060000     -68.31100000
S      -46.61790000     -35.06860000     -67.12950000
S      -44.80560000     -32.44350000     -66.79440000
H      -43.73830000     -30.88060000     -68.32020000
