40
Properties=species:S:1:pos:R:3 #=T CELL(abcABC):=T 1.889726e+02=T 90.00000=T Traj:=T positionsangstrom=T Step:=T 0=T Bead:=T pbc="F F F"
C      -43.39940000     -34.14670000     -73.39140000
C      -44.65760000     -34.13560000     -74.04120000
C      -45.38680000     -32.90610000     -74.20410000
C      -44.94450000     -31.74150000     -73.55860000
C      -43.65030000     -31.79070000     -72.96160000
C      -42.85030000     -32.95490000     -72.89260000
H      -42.85020000     -35.09830000     -73.35900000
H      -46.29510000     -32.90560000     -74.70000000
H      -43.24420000     -30.90920000     -72.46540000
H      -41.84270000     -32.84990000     -72.40470000
C      -45.67180000     -30.45210000     -73.60310000
H      -46.65840000     -30.61040000     -74.10150000
H      -44.99830000     -29.72030000     -74.00420000
C      -45.26330000     -35.44120000     -74.54390000
H      -45.95820000     -35.41190000     -75.41280000
H      -44.41270000     -36.07050000     -74.85470000
S      -46.15190000     -30.01170000     -71.80880000
S      -46.15180000     -36.38370000     -73.12570000
C      -47.47490000     -31.24360000     -71.61510000
H      -48.50500000     -30.88200000     -71.70150000
H      -47.42170000     -31.86840000     -72.54760000
C      -47.16420000     -35.09960000     -72.36470000
H      -48.21310000     -35.09680000     -72.79390000
H      -46.66900000     -34.10750000     -72.70480000
C      -47.29580000     -35.34290000     -70.79240000
H      -48.24280000     -34.83770000     -70.52750000
H      -47.60240000     -36.39640000     -70.76680000
C      -47.44100000     -31.95180000     -70.29630000
H      -48.04000000     -32.82920000     -70.24300000
H      -47.84370000     -31.29100000     -69.63760000
C      -46.01160000     -32.36910000     -69.77100000
C      -45.04220000     -31.51470000     -69.27750000
C      -45.65570000     -33.73530000     -69.54380000
H      -45.22450000     -30.43430000     -69.28150000
C      -44.51550000     -33.81200000     -68.72720000
C      -46.11780000     -35.08070000     -69.89940000
C      -45.23550000     -36.08340000     -69.44350000
S      -43.77060000     -32.24670000     -68.35330000
S      -43.87550000     -35.36010000     -68.52400000
H      -45.38560000     -37.14820000     -69.61320000
