40
Properties=species:S:1:pos:R:3 #=T CELL(abcABC):=T 1.889726e+02=T 90.00000=T Traj:=T positionsangstrom=T Step:=T 0=T Bead:=T pbc="F F F"
C      -43.27330000     -34.60970000     -72.30710000
C      -44.37960000     -34.78660000     -73.16420000
C      -44.98850000     -33.59860000     -73.70710000
C      -44.53570000     -32.34320000     -73.33310000
C      -43.42910000     -32.18470000     -72.44010000
C      -42.81550000     -33.37420000     -71.96870000
H      -42.80420000     -35.53000000     -71.89230000
H      -45.70750000     -33.80060000     -74.47920000
H      -43.19920000     -31.20170000     -72.14010000
H      -41.98330000     -33.37710000     -71.24060000
C      -45.29520000     -31.11220000     -73.83660000
H      -45.92490000     -31.30950000     -74.70950000
H      -44.60320000     -30.35850000     -74.09490000
C      -44.71990000     -36.18510000     -73.74130000
H      -44.86480000     -36.13380000     -74.84860000
H      -43.97970000     -36.95580000     -73.42140000
S      -46.21080000     -30.19520000     -72.48170000
S      -46.40470000     -36.82180000     -73.14100000
C      -47.51310000     -31.40930000     -72.09400000
H      -48.43050000     -30.84760000     -72.46320000
H      -47.39660000     -32.45180000     -72.55780000
C      -47.25710000     -35.30440000     -72.38040000
H      -48.22330000     -35.20090000     -72.78730000
H      -46.80030000     -34.40800000     -72.87280000
C      -47.29530000     -35.10870000     -70.87820000
H      -48.10610000     -34.40730000     -70.79550000
H      -47.62660000     -35.99120000     -70.42380000
C      -47.57110000     -31.54940000     -70.59390000
H      -48.37120000     -32.36880000     -70.34550000
H      -47.89000000     -30.56330000     -70.10320000
C      -46.26740000     -31.87580000     -69.95650000
C      -45.49900000     -30.92860000     -69.31700000
C      -45.80030000     -33.23540000     -69.68570000
H      -45.71190000     -29.91630000     -69.38860000
C      -44.62230000     -33.23710000     -68.94790000
C      -46.05940000     -34.61390000     -70.21760000
C      -45.14190000     -35.53590000     -69.72690000
S      -44.16300000     -31.64000000     -68.37060000
S      -43.75000000     -34.80550000     -68.88390000
H      -45.03960000     -36.62910000     -70.01780000
