40
Properties=species:S:1:pos:R:3 #=T CELL(abcABC):=T 1.889726e+02=T 90.00000=T Traj:=T positionsangstrom=T Step:=T 0=T Bead:=T pbc="F F F"
C      -43.20870000     -34.45410000     -72.31260000
C      -44.30630000     -34.59080000     -73.21350000
C      -44.73780000     -33.39210000     -73.87960000
C      -44.05420000     -32.17190000     -73.78790000
C      -43.01630000     -32.10500000     -72.92710000
C      -42.59190000     -33.24310000     -72.15070000
H      -42.97930000     -35.23700000     -71.53220000
H      -45.62100000     -33.34560000     -74.50510000
H      -42.57850000     -31.07430000     -72.84490000
H      -41.72270000     -33.11960000     -71.58580000
C      -44.78150000     -30.92860000     -74.38270000
H      -45.36080000     -31.16160000     -75.20990000
H      -44.12800000     -30.05850000     -74.71140000
C      -44.99470000     -35.86700000     -73.55610000
H      -45.71500000     -35.66980000     -74.30600000
H      -44.32810000     -36.70540000     -73.94920000
S      -45.91520000     -30.24430000     -73.05010000
S      -45.89920000     -36.54050000     -72.10010000
C      -47.22270000     -31.57130000     -72.74510000
H      -48.23240000     -31.40300000     -73.26210000
H      -46.75870000     -32.51030000     -73.14110000
C      -47.28690000     -35.41460000     -71.86410000
H      -48.14990000     -35.81390000     -72.34370000
H      -47.04950000     -34.42060000     -72.30270000
C      -47.73050000     -35.22370000     -70.36580000
H      -48.53610000     -34.53520000     -70.33760000
H      -48.15680000     -36.17330000     -70.10810000
C      -47.64710000     -31.85380000     -71.21000000
H      -48.32070000     -32.72430000     -71.15880000
H      -48.08220000     -30.92960000     -70.80030000
C      -46.41610000     -32.19410000     -70.36060000
C      -45.59210000     -31.14830000     -69.93850000
C      -46.10580000     -33.39600000     -69.61140000
H      -45.69740000     -30.12040000     -70.11070000
C      -44.84530000     -33.29510000     -68.90750000
C      -46.54990000     -34.77890000     -69.50450000
C      -45.73100000     -35.61780000     -68.77730000
S      -44.30840000     -31.68820000     -68.93690000
S      -44.25250000     -34.88770000     -68.27120000
H      -45.88970000     -36.66590000     -68.59490000
