40
Properties=species:S:1:pos:R:3 #=T CELL(abcABC):=T 1.889726e+02=T 90.00000=T Traj:=T positionsangstrom=T Step:=T 0=T Bead:=T pbc="F F F"
C      -43.26580000     -34.66370000     -72.43450000
C      -44.29950000     -34.71850000     -73.34400000
C      -44.75520000     -33.54280000     -73.97470000
C      -44.18040000     -32.30410000     -73.75970000
C      -43.04860000     -32.29050000     -72.88870000
C      -42.62640000     -33.44220000     -72.22260000
H      -42.89270000     -35.61570000     -71.94640000
H      -45.58170000     -33.54420000     -74.71350000
H      -42.59230000     -31.30800000     -72.72850000
H      -41.82740000     -33.33300000     -71.57250000
C      -44.66960000     -30.94790000     -74.26890000
H      -45.14430000     -30.95820000     -75.32310000
H      -43.88530000     -30.18270000     -74.38900000
C      -45.08070000     -36.01620000     -73.48970000
H      -45.89270000     -35.85510000     -74.23620000
H      -44.37370000     -36.79860000     -73.72340000
S      -45.90640000     -30.24330000     -73.03260000
S      -45.87160000     -36.57360000     -71.92240000
C      -47.09470000     -31.75360000     -72.74360000
H      -47.95000000     -31.79940000     -73.40010000
H      -46.56580000     -32.59310000     -73.13510000
C      -47.38900000     -35.44340000     -71.81170000
H      -48.15830000     -35.96240000     -72.38300000
H      -47.25410000     -34.52850000     -72.39930000
C      -47.74730000     -35.23030000     -70.41680000
H      -48.68770000     -34.62180000     -70.46990000
H      -47.97150000     -36.18050000     -69.86850000
C      -47.57410000     -31.84820000     -71.26290000
H      -48.34780000     -32.64080000     -71.17930000
H      -48.22600000     -30.93880000     -71.03800000
C      -46.43090000     -31.98710000     -70.32590000
C      -45.56270000     -31.00570000     -69.86800000
C      -46.06990000     -33.23540000     -69.72540000
H      -45.54270000     -29.95090000     -70.06850000
C      -44.86290000     -33.20350000     -68.98390000
C      -46.55760000     -34.59900000     -69.67330000
C      -45.70150000     -35.48960000     -69.05230000
S      -44.34530000     -31.62310000     -68.74030000
S      -44.23160000     -34.69060000     -68.36070000
H      -45.89080000     -36.50610000     -68.88990000
