40
Properties=species:S:1:pos:R:3 #=T CELL(abcABC):=T 1.889726e+02=T 90.00000=T Traj:=T positionsangstrom=T Step:=T 0=T Bead:=T pbc="F F F"
C      -46.71820000     -35.44360000     -75.07700000
C      -47.16110000     -34.73720000     -73.96930000
C      -46.55660000     -33.48340000     -73.58660000
C      -45.59030000     -32.94710000     -74.37640000
C      -45.14060000     -33.63500000     -75.54010000
C      -45.72480000     -34.82620000     -75.92060000
H      -47.13190000     -36.44530000     -75.29580000
H      -47.02600000     -32.86010000     -72.75690000
H      -44.33670000     -33.20110000     -76.15960000
H      -45.39700000     -35.26120000     -76.80440000
C      -44.89780000     -31.67850000     -73.95460000
H      -45.35050000     -31.29760000     -73.00780000
H      -44.91380000     -30.89490000     -74.70570000
C      -48.25560000     -35.28660000     -73.09560000
H      -48.83830000     -34.41550000     -72.69300000
H      -48.88290000     -35.98060000     -73.63380000
S      -43.18790000     -32.02370000     -73.59920000
S      -47.51510000     -36.28830000     -71.64850000
C      -42.81990000     -33.50230000     -72.56990000
H      -42.80650000     -34.38720000     -73.20420000
H      -41.83920000     -33.28830000     -72.19250000
C      -47.19090000     -34.88820000     -70.45420000
H      -48.03120000     -34.56800000     -69.86460000
H      -46.99580000     -33.99490000     -71.03770000
C      -46.03940000     -35.21270000     -69.48130000
H      -46.43520000     -35.99950000     -68.76990000
H      -45.15320000     -35.54460000     -70.03670000
C      -43.68850000     -33.83310000     -71.33980000
H      -43.28110000     -34.79530000     -70.96450000
H      -44.69840000     -34.08700000     -71.63520000
C      -43.80320000     -32.81500000     -70.23500000
C      -43.18130000     -31.61170000     -70.21070000
C      -44.75470000     -32.99370000     -69.15720000
H      -42.49090000     -31.32710000     -71.00990000
C      -44.66320000     -31.87950000     -68.25610000
C      -45.61530000     -34.01440000     -68.66950000
C      -46.26590000     -33.67570000     -67.49480000
S      -43.60270000     -30.69180000     -68.76810000
S      -45.81310000     -32.05520000     -66.88340000
H      -46.97870000     -34.36950000     -67.05740000
