40
Properties=species:S:1:pos:R:3 #=T CELL(abcABC):=T 1.889726e+02=T 90.00000=T Traj:=T positionsangstrom=T Step:=T 0=T Bead:=T pbc="F F F"
C      -48.74520000     -32.26550000     -72.35330000
C      -47.89830000     -32.81580000     -71.34590000
C      -47.05430000     -33.87190000     -71.72990000
C      -47.04940000     -34.35800000     -73.06480000
C      -47.90170000     -33.78700000     -74.00970000
C      -48.71390000     -32.71510000     -73.68380000
H      -49.36140000     -31.37830000     -72.00100000
H      -46.38290000     -34.35460000     -70.97590000
H      -47.60300000     -33.91850000     -75.01400000
H      -49.25850000     -32.21960000     -74.44070000
C      -46.05430000     -35.46000000     -73.50830000
H      -46.66260000     -36.23160000     -73.95040000
H      -45.63200000     -35.82010000     -72.54760000
C      -47.91620000     -32.22710000     -69.95910000
H      -48.97310000     -32.09620000     -69.57090000
H      -47.40430000     -32.97340000     -69.25250000
S      -44.78820000     -34.86520000     -74.71760000
S      -47.08510000     -30.52710000     -69.80450000
C      -44.33130000     -33.18090000     -73.93610000
H      -44.14100000     -32.54890000     -74.84920000
H      -45.04730000     -32.53550000     -73.43800000
C      -45.77940000     -30.83120000     -71.07130000
H      -45.83620000     -29.98660000     -71.77650000
H      -46.04860000     -31.72850000     -71.57740000
C      -44.26340000     -30.85880000     -70.56290000
H      -43.69360000     -30.83680000     -71.51560000
H      -44.24510000     -29.91780000     -69.99110000
C      -43.10590000     -33.18080000     -73.06230000
H      -42.74380000     -32.14210000     -72.92060000
H      -42.26400000     -33.65910000     -73.65180000
C      -43.07900000     -33.94450000     -71.69020000
C      -42.90840000     -35.30030000     -71.56870000
C      -43.49860000     -33.38920000     -70.35520000
H      -42.71600000     -36.00480000     -72.34060000
C      -43.54460000     -34.41490000     -69.45680000
C      -43.98690000     -32.13410000     -69.80880000
C      -44.30720000     -32.28030000     -68.49330000
S      -43.28730000     -36.01950000     -69.98900000
S      -44.11700000     -33.90600000     -67.88500000
H      -44.66130000     -31.46890000     -67.81630000
