40
Properties=species:S:1:pos:R:3 #=T CELL(abcABC):=T 1.889726e+02=T 90.00000=T Traj:=T positionsangstrom=T Step:=T 0=T Bead:=T pbc="F F F"
C      -43.11210000     -34.78230000     -71.95540000
C      -44.16520000     -35.04860000     -72.91810000
C      -44.75180000     -33.96370000     -73.62040000
C      -44.27760000     -32.68620000     -73.41390000
C      -43.34180000     -32.37100000     -72.39190000
C      -42.77290000     -33.42860000     -71.70180000
H      -42.62690000     -35.59640000     -71.33450000
H      -45.53230000     -34.07810000     -74.39300000
H      -42.88590000     -31.39200000     -72.39100000
H      -42.00300000     -33.20120000     -70.99090000
C      -44.80590000     -31.62830000     -74.34670000
H      -45.32350000     -32.03710000     -75.23140000
H      -43.99090000     -31.00860000     -74.59500000
C      -44.68380000     -36.46690000     -73.03590000
H      -44.94140000     -36.72260000     -74.07290000
H      -43.97910000     -37.18270000     -72.78890000
S      -46.01810000     -30.54040000     -73.48740000
S      -46.14690000     -36.83490000     -71.94530000
C      -47.31400000     -31.69750000     -72.84820000
H      -48.15790000     -31.61230000     -73.59820000
H      -46.89310000     -32.66570000     -72.99070000
C      -47.48680000     -35.51770000     -71.90250000
H      -48.39880000     -35.96810000     -72.24990000
H      -47.07730000     -34.73790000     -72.57600000
C      -47.65060000     -34.87210000     -70.49840000
H      -48.40240000     -33.96700000     -70.48390000
H      -48.04550000     -35.72530000     -69.90190000
C      -47.64080000     -31.46670000     -71.33400000
H      -48.50690000     -32.10470000     -71.11080000
H      -47.98650000     -30.47380000     -71.20720000
C      -46.36890000     -31.76950000     -70.46640000
C      -45.57940000     -30.72620000     -69.95010000
C      -45.91240000     -33.06030000     -69.85650000
H      -45.82270000     -29.66710000     -69.94630000
C      -44.67970000     -32.92680000     -69.15340000
C      -46.39000000     -34.38860000     -69.82140000
C      -45.56470000     -35.22800000     -69.06410000
S      -44.19720000     -31.25320000     -69.01590000
S      -44.15920000     -34.35520000     -68.43350000
H      -45.89390000     -36.19070000     -68.76630000
