40
Properties=species:S:1:pos:R:3 #=T CELL(abcABC):=T 1.889726e+02=T 90.00000=T Traj:=T positionsangstrom=T Step:=T 0=T Bead:=T pbc="F F F"
C      -46.26350000     -30.66880000     -74.19330000
C      -44.88050000     -31.06960000     -74.09180000
C      -44.51960000     -32.38230000     -74.26720000
C      -45.50370000     -33.32010000     -74.63930000
C      -46.88000000     -32.97680000     -74.64040000
C      -47.24950000     -31.63400000     -74.39140000
H      -46.47640000     -29.68410000     -73.82560000
H      -43.60340000     -32.71730000     -73.88340000
H      -47.50770000     -33.76330000     -74.99000000
H      -48.27160000     -31.39010000     -74.28820000
C      -45.12440000     -34.73030000     -75.04450000
H      -44.09120000     -34.99060000     -74.94810000
H      -45.41260000     -34.77960000     -76.11250000
C      -43.82600000     -30.02850000     -73.62300000
H      -42.91090000     -30.05400000     -74.23890000
H      -44.16270000     -28.97920000     -73.64840000
S      -46.18770000     -35.97130000     -74.18700000
S      -42.90280000     -30.18750000     -71.85900000
C      -45.57460000     -35.74350000     -72.42360000
H      -45.84980000     -36.57910000     -71.80030000
H      -44.49880000     -35.69740000     -72.40900000
C      -44.11170000     -31.13490000     -70.82650000
H      -45.08350000     -31.37310000     -71.33430000
H      -44.45330000     -30.41590000     -69.97260000
C      -43.53140000     -32.49510000     -70.27300000
H      -43.22530000     -33.07030000     -71.16130000
H      -42.58140000     -32.22600000     -69.75980000
C      -46.10540000     -34.41200000     -71.65470000
H      -46.92000000     -33.98890000     -72.21230000
H      -45.35700000     -33.62660000     -71.77330000
C      -46.28440000     -34.67140000     -70.21330000
C      -47.32840000     -35.42610000     -69.71100000
C      -45.41480000     -34.11760000     -69.13530000
H      -48.11550000     -35.87160000     -70.27540000
C      -45.76050000     -34.60860000     -67.89610000
C      -44.25860000     -33.24420000     -69.14890000
C      -43.79910000     -33.06570000     -67.81130000
S      -47.24410000     -35.48410000     -67.89520000
S      -44.68860000     -34.09850000     -66.63280000
H      -42.96970000     -32.46070000     -67.43960000
