40
Properties=species:S:1:pos:R:3 #=T CELL(abcABC):=T 1.889726e+02=T 90.00000=T Traj:=T positionsangstrom=T Step:=T 0=T Bead:=T pbc="F F F"
C      -43.66950000     -31.47460000     -71.59170000
C      -44.78790000     -30.96320000     -70.93220000
C      -44.91000000     -31.22050000     -69.53330000
C      -44.01200000     -32.05660000     -68.85130000
C      -43.00900000     -32.66020000     -69.61370000
C      -42.83370000     -32.34490000     -70.93720000
H      -43.61320000     -31.27230000     -72.69420000
H      -45.83080000     -30.85520000     -69.07290000
H      -42.24970000     -33.28380000     -69.06670000
H      -41.98310000     -32.79310000     -71.49980000
C      -44.27580000     -32.27900000     -67.39280000
H      -44.76050000     -31.38590000     -66.96740000
H      -43.31340000     -32.37260000     -66.92930000
C      -45.82190000     -30.06660000     -71.56410000
H      -46.59620000     -30.03110000     -70.78000000
H      -45.42590000     -29.07670000     -71.77690000
S      -45.21850000     -33.86190000     -67.01420000
S      -46.54850000     -30.66440000     -73.14630000
C      -45.00710000     -35.00460000     -68.40350000
H      -43.89700000     -34.99940000     -68.65870000
H      -45.26660000     -36.06950000     -68.12080000
C      -47.99350000     -31.57530000     -72.60490000
H      -48.53900000     -31.78430000     -73.48000000
H      -48.66910000     -30.81810000     -72.15850000
C      -47.67780000     -32.89120000     -71.81020000
H      -47.03860000     -32.69080000     -70.89440000
H      -48.59430000     -33.26220000     -71.47290000
C      -45.77720000     -34.52880000     -69.62630000
H      -45.75710000     -33.49530000     -69.73210000
H      -46.85140000     -34.76640000     -69.48770000
C      -45.26990000     -35.09120000     -70.96550000
C      -44.27600000     -35.97790000     -71.14370000
C      -45.83430000     -34.69520000     -72.30040000
H      -43.54080000     -36.33950000     -70.40290000
C      -45.09390000     -35.21620000     -73.38390000
C      -47.00740000     -33.88800000     -72.74080000
C      -47.13640000     -33.93710000     -74.12460000
S      -43.89150000     -36.36190000     -72.80810000
S      -45.86200000     -34.88930000     -74.90880000
H      -47.84850000     -33.53360000     -74.72440000
