40
Properties=species:S:1:pos:R:3 #=T CELL(abcABC):=T 1.889726e+02=T 90.00000=T Traj:=T positionsangstrom=T Step:=T 0=T Bead:=T pbc="F F F"
C      -44.05510000     -31.54400000     -71.38730000
C      -45.05020000     -30.92050000     -70.63240000
C      -45.12950000     -31.13710000     -69.27150000
C      -44.14780000     -31.99670000     -68.67760000
C      -43.02590000     -32.42950000     -69.39190000
C      -43.00790000     -32.25560000     -70.76820000
H      -44.00370000     -31.38470000     -72.48880000
H      -45.87260000     -30.72760000     -68.59370000
H      -42.32680000     -33.11640000     -68.99190000
H      -42.24560000     -32.73110000     -71.32670000
C      -44.27040000     -32.37940000     -67.26270000
H      -44.58080000     -31.56710000     -66.56210000
H      -43.34220000     -32.85340000     -66.84860000
C      -46.08050000     -30.04240000     -71.32870000
H      -46.96000000     -29.90070000     -70.71410000
H      -45.71700000     -28.99450000     -71.44190000
S      -45.61620000     -33.78130000     -67.08900000
S      -46.55080000     -30.55470000     -73.03670000
C      -45.23930000     -34.84230000     -68.54230000
H      -44.14500000     -34.70900000     -68.67170000
H      -45.39650000     -35.83790000     -68.23460000
C      -47.97940000     -31.63520000     -72.74770000
H      -48.24880000     -31.74000000     -73.78300000
H      -48.77000000     -31.10850000     -72.23060000
C      -47.69710000     -33.09340000     -72.18280000
H      -47.48780000     -33.02090000     -71.06460000
H      -48.57390000     -33.73810000     -72.17070000
C      -46.01800000     -34.62240000     -69.86680000
H      -46.00590000     -33.57020000     -69.95650000
H      -47.06020000     -34.96070000     -69.75390000
C      -45.33560000     -35.19430000     -71.09940000
C      -44.25720000     -36.10460000     -71.11350000
C      -45.73770000     -34.79510000     -72.45590000
H      -43.65460000     -36.32440000     -70.28390000
C      -44.94040000     -35.48020000     -73.42610000
C      -46.65270000     -33.81250000     -73.00990000
C      -46.46100000     -33.66830000     -74.38570000
S      -43.80190000     -36.59840000     -72.73770000
S      -45.23890000     -34.79600000     -74.99260000
H      -47.07830000     -33.06290000     -75.12580000
