40
Properties=species:S:1:pos:R:3 #=T CELL(abcABC):=T 1.889726e+02=T 90.00000=T Traj:=T positionsangstrom=T Step:=T 0=T Bead:=T pbc="F F F"
C      -44.21190000     -31.22840000     -71.35090000
C      -45.36200000     -30.86500000     -70.65710000
C      -45.46960000     -31.32320000     -69.34440000
C      -44.49310000     -32.13030000     -68.80410000
C      -43.26800000     -32.37510000     -69.46080000
C      -43.18490000     -31.96170000     -70.79530000
H      -44.12580000     -30.82390000     -72.35000000
H      -46.35420000     -31.22430000     -68.70560000
H      -42.53460000     -33.02000000     -68.99300000
H      -42.27890000     -32.17510000     -71.41210000
C      -44.54890000     -32.64170000     -67.34920000
H      -44.91400000     -31.81560000     -66.73850000
H      -43.47840000     -32.81350000     -66.97770000
C      -46.25560000     -29.74930000     -71.20010000
H      -47.26350000     -29.63140000     -70.72770000
H      -45.76280000     -28.79130000     -71.11190000
S      -45.58850000     -34.15550000     -67.02880000
S      -46.63190000     -30.11110000     -73.01870000
C      -45.25580000     -35.26630000     -68.48310000
H      -44.23090000     -35.37560000     -68.67300000
H      -45.66900000     -36.23460000     -68.23740000
C      -47.80740000     -31.58840000     -72.94340000
H      -48.10210000     -32.01400000     -73.89670000
H      -48.74680000     -31.30070000     -72.49610000
C      -47.22680000     -32.77290000     -72.14670000
H      -46.73200000     -32.49510000     -71.23130000
H      -48.11720000     -33.38350000     -71.81490000
C      -45.92630000     -34.85700000     -69.80480000
H      -45.96970000     -33.77610000     -69.75230000
H      -46.92150000     -35.21060000     -69.84800000
C      -45.21620000     -35.26090000     -71.06320000
C      -44.28480000     -36.25620000     -71.10140000
C      -45.47950000     -34.76610000     -72.43660000
H      -44.15150000     -37.00500000     -70.25160000
C      -44.80340000     -35.42680000     -73.41510000
C      -46.30810000     -33.66260000     -72.98510000
C      -46.13440000     -33.61140000     -74.34960000
S      -43.82550000     -36.71910000     -72.75630000
S      -45.09110000     -34.80050000     -74.99560000
H      -46.57250000     -32.98820000     -75.14830000
