40
Properties=species:S:1:pos:R:3 #=T CELL(abcABC):=T 1.889726e+02=T 90.00000=T Traj:=T positionsangstrom=T Step:=T 0=T Bead:=T pbc="F F F"
C      -44.12510000     -30.96400000     -71.22560000
C      -45.32620000     -30.68510000     -70.58140000
C      -45.49450000     -31.23810000     -69.29820000
C      -44.46390000     -32.03240000     -68.63180000
C      -43.35240000     -32.32590000     -69.43770000
C      -43.14420000     -31.76500000     -70.71560000
H      -44.02260000     -30.44340000     -72.17680000
H      -46.36000000     -31.09800000     -68.66860000
H      -42.59550000     -32.98360000     -68.95680000
H      -42.26910000     -31.98750000     -71.33390000
C      -44.63680000     -32.61880000     -67.28950000
H      -45.11030000     -31.89890000     -66.61520000
H      -43.65070000     -32.87420000     -66.97840000
C      -46.29200000     -29.69640000     -71.24630000
H      -47.08600000     -29.34610000     -70.63230000
H      -45.67680000     -28.84360000     -71.60740000
S      -45.61660000     -34.20520000     -67.21890000
S      -46.72430000     -30.28410000     -72.92820000
C      -45.06850000     -35.15150000     -68.71660000
H      -44.01170000     -34.95010000     -68.85630000
H      -45.05750000     -36.18200000     -68.51390000
C      -47.93490000     -31.59000000     -72.70540000
H      -48.46330000     -31.66020000     -73.65700000
H      -48.75520000     -31.34280000     -72.00030000
C      -47.39170000     -33.02220000     -72.28800000
H      -46.84400000     -32.80210000     -71.35250000
H      -48.18920000     -33.69790000     -72.05130000
C      -45.94910000     -34.83390000     -69.84290000
H      -46.07050000     -33.77000000     -69.82400000
H      -46.91460000     -35.23060000     -69.55320000
C      -45.41610000     -35.38650000     -71.15880000
C      -44.58340000     -36.48190000     -71.14370000
C      -45.48840000     -34.72040000     -72.42010000
H      -44.33910000     -37.20420000     -70.32790000
C      -44.64890000     -35.39030000     -73.35930000
C      -46.33030000     -33.79150000     -73.09620000
C      -46.12870000     -33.65930000     -74.43140000
S      -43.77040000     -36.73570000     -72.73740000
S      -44.81820000     -34.73010000     -74.95950000
H      -46.69470000     -33.03690000     -75.05830000
