40
Properties=species:S:1:pos:R:3 #=T CELL(abcABC):=T 1.889726e+02=T 90.00000=T Traj:=T positionsangstrom=T Step:=T 0=T Bead:=T pbc="F F F"
C      -43.73260000     -31.52240000     -71.54490000
C      -44.82110000     -30.98800000     -70.80420000
C      -44.96990000     -31.26930000     -69.47490000
C      -43.98890000     -32.04930000     -68.79080000
C      -42.84330000     -32.35450000     -69.49270000
C      -42.75210000     -32.24900000     -70.87700000
H      -43.59360000     -31.23400000     -72.58670000
H      -45.80540000     -30.84520000     -68.93650000
H      -42.01580000     -32.98410000     -68.96340000
H      -41.97060000     -32.67780000     -71.48170000
C      -44.16040000     -32.43300000     -67.35200000
H      -44.40140000     -31.58480000     -66.71640000
H      -43.21240000     -32.85210000     -66.94370000
C      -45.72980000     -30.00200000     -71.58180000
H      -46.45410000     -29.49230000     -70.96190000
H      -45.10470000     -29.19430000     -72.04330000
S      -45.38730000     -33.82710000     -67.06280000
S      -46.48070000     -30.67430000     -73.14870000
C      -45.05340000     -35.03950000     -68.44120000
H      -44.02630000     -34.94860000     -68.67360000
H      -45.30220000     -36.04240000     -68.05150000
C      -48.00800000     -31.52060000     -72.58200000
H      -48.66750000     -31.68250000     -73.41420000
H      -48.51120000     -30.88130000     -71.78830000
C      -47.80340000     -32.88930000     -72.01920000
H      -47.43790000     -32.95020000     -70.99990000
H      -48.81990000     -33.31190000     -71.81430000
C      -45.97820000     -34.72510000     -69.65870000
H      -46.28590000     -33.72910000     -69.60240000
H      -46.89020000     -35.35770000     -69.52530000
C      -45.41890000     -35.13420000     -71.00110000
C      -44.28880000     -35.87070000     -71.09720000
C      -45.95400000     -34.72990000     -72.29330000
H      -43.73790000     -36.33630000     -70.25470000
C      -45.27430000     -35.34600000     -73.29700000
C      -46.97170000     -33.84440000     -72.85800000
C      -46.89410000     -33.84920000     -74.26230000
S      -43.77270000     -36.21380000     -72.76900000
S      -45.78710000     -35.06150000     -74.93860000
H      -47.50970000     -33.40240000     -74.93060000
