40
Properties=species:S:1:pos:R:3 #=T CELL(abcABC):=T 1.889726e+02=T 90.00000=T Traj:=T positionsangstrom=T Step:=T 0=T Bead:=T pbc="F F F"
C      -44.61020000     -31.39530000     -71.72930000
C      -45.63930000     -30.95000000     -70.88580000
C      -45.68300000     -31.39040000     -69.53920000
C      -44.58570000     -32.13100000     -69.04690000
C      -43.54000000     -32.44230000     -69.93180000
C      -43.57190000     -32.10770000     -71.24060000
H      -44.60400000     -30.97460000     -72.77180000
H      -46.50160000     -31.03280000     -68.90390000
H      -42.66820000     -32.93130000     -69.46360000
H      -42.85430000     -32.44570000     -71.96710000
C      -44.51510000     -32.62430000     -67.61290000
H      -44.65900000     -31.80900000     -66.91970000
H      -43.47570000     -33.02100000     -67.34070000
C      -46.64440000     -29.97540000     -71.46010000
H      -47.51490000     -29.90090000     -70.68540000
H      -46.26320000     -28.99540000     -71.61440000
S      -45.83850000     -33.91390000     -67.27510000
S      -47.31670000     -30.47090000     -73.08190000
C      -45.29760000     -35.23920000     -68.45120000
H      -44.27710000     -35.22950000     -68.43980000
H      -45.54190000     -36.14250000     -67.97160000
C      -48.18410000     -32.07270000     -72.73980000
H      -48.55820000     -32.36950000     -73.69480000
H      -48.97910000     -31.93240000     -72.04800000
C      -47.34150000     -33.23540000     -72.10050000
H      -47.03830000     -32.91290000     -71.10510000
H      -47.99980000     -34.15330000     -71.93360000
C      -46.02580000     -35.12700000     -69.78690000
H      -46.46220000     -34.15370000     -69.82040000
H      -46.89900000     -35.79130000     -69.87420000
C      -45.13180000     -35.34760000     -70.96350000
C      -44.01190000     -36.18090000     -70.84990000
C      -45.28500000     -34.75070000     -72.30670000
H      -43.61250000     -36.90150000     -70.13480000
C      -44.23130000     -35.18150000     -73.14020000
C      -46.16280000     -33.76160000     -72.84310000
C      -45.83260000     -33.51650000     -74.15700000
S      -43.13200000     -36.26400000     -72.31820000
S      -44.38570000     -34.40070000     -74.67980000
H      -46.17890000     -32.72090000     -74.77140000
