40
Properties=species:S:1:pos:R:3 #=T CELL(abcABC):=T 1.889726e+02=T 90.00000=T Traj:=T positionsangstrom=T Step:=T 0=T Bead:=T pbc="F F F"
C      -44.38730000     -31.24340000     -71.58660000
C      -45.46920000     -30.83640000     -70.78560000
C      -45.53370000     -31.32800000     -69.49280000
C      -44.61420000     -32.13800000     -68.95950000
C      -43.44440000     -32.34330000     -69.65950000
C      -43.35490000     -31.96230000     -70.99030000
H      -44.39790000     -30.92900000     -72.63930000
H      -46.38230000     -30.98890000     -68.89030000
H      -42.75340000     -33.02190000     -69.21440000
H      -42.41390000     -32.07130000     -71.51950000
C      -44.61280000     -32.56010000     -67.44820000
H      -44.73800000     -31.63690000     -66.80930000
H      -43.61970000     -32.90310000     -67.21460000
C      -46.48920000     -29.99000000     -71.41850000
H      -47.35680000     -29.76550000     -70.83860000
H      -45.92470000     -29.01870000     -71.46280000
S      -45.77150000     -33.91930000     -67.15930000
S      -46.96770000     -30.58890000     -73.12230000
C      -45.12420000     -35.11600000     -68.40360000
H      -44.07310000     -34.93450000     -68.53420000
H      -45.20390000     -36.06390000     -67.95510000
C      -48.10490000     -32.03330000     -72.81980000
H      -48.33630000     -32.44730000     -73.84950000
H      -49.06130000     -31.72190000     -72.46890000
C      -47.37000000     -33.09280000     -72.01630000
H      -46.91230000     -32.71580000     -71.06240000
H      -48.03490000     -33.91290000     -71.79400000
C      -45.94500000     -35.09330000     -69.72670000
H      -46.20970000     -34.03830000     -69.85910000
H      -46.87630000     -35.67190000     -69.69840000
C      -45.15170000     -35.47030000     -71.00070000
C      -44.19440000     -36.43590000     -71.08860000
C      -45.32190000     -34.70970000     -72.28500000
H      -43.92560000     -36.96930000     -70.21300000
C      -44.45630000     -35.17210000     -73.23370000
C      -46.25040000     -33.70700000     -72.80940000
C      -45.96220000     -33.39140000     -74.09760000
S      -43.51330000     -36.53030000     -72.71210000
S      -44.65350000     -34.37350000     -74.74320000
H      -46.50030000     -32.68400000     -74.76300000
