40
Properties=species:S:1:pos:R:3 #=T CELL(abcABC):=T 1.889726e+02=T 90.00000=T Traj:=T positionsangstrom=T Step:=T 0=T Bead:=T pbc="F F F"
C      -48.78190000     -32.46190000     -72.09770000
C      -47.75060000     -32.89970000     -71.23370000
C      -46.90130000     -33.92670000     -71.63900000
C      -47.03460000     -34.49770000     -72.94040000
C      -47.92070000     -33.94670000     -73.83870000
C      -48.81360000     -32.98550000     -73.38360000
H      -49.55430000     -31.78380000     -71.85610000
H      -46.12330000     -34.28800000     -70.96560000
H      -47.93620000     -34.22260000     -74.94430000
H      -49.57960000     -32.49370000     -74.05750000
C      -46.11420000     -35.58900000     -73.41560000
H      -46.77830000     -36.26800000     -73.95580000
H      -45.69470000     -36.09030000     -72.53040000
C      -47.55060000     -32.24400000     -69.92310000
H      -48.51110000     -32.19460000     -69.41150000
H      -46.82860000     -32.88910000     -69.31380000
S      -44.86420000     -34.93160000     -74.59270000
S      -46.95690000     -30.46940000     -70.13360000
C      -44.17430000     -33.31480000     -73.96900000
H      -43.85510000     -32.74160000     -74.84690000
H      -45.04440000     -32.78000000     -73.68770000
C      -45.53690000     -30.48770000     -71.27970000
H      -45.44810000     -29.52950000     -71.75970000
H      -45.66000000     -31.21020000     -72.07980000
C      -44.06200000     -30.81060000     -70.74800000
H      -43.32390000     -30.82580000     -71.56390000
H      -43.76280000     -30.08600000     -70.04170000
C      -42.94850000     -33.30650000     -73.02030000
H      -42.69360000     -32.24750000     -72.92580000
H      -42.19250000     -33.82640000     -73.66140000
C      -43.14080000     -33.99610000     -71.66450000
C      -43.02250000     -35.36180000     -71.54290000
C      -43.56520000     -33.38120000     -70.41760000
H      -42.89060000     -35.98420000     -72.39460000
C      -43.71640000     -34.30270000     -69.38190000
C      -43.90800000     -32.07560000     -69.96080000
C      -44.40130000     -32.11030000     -68.65510000
S      -43.49630000     -35.98800000     -69.95490000
S      -44.31890000     -33.64190000     -67.90600000
H      -44.85240000     -31.34840000     -68.09780000
