40
Properties=species:S:1:pos:R:3 #=T CELL(abcABC):=T 1.889726e+02=T 90.00000=T Traj:=T positionsangstrom=T Step:=T 0=T Bead:=T pbc="F F F"
C      -44.29050000     -31.16070000     -71.68190000
C      -45.39540000     -30.69900000     -70.83470000
C      -45.45810000     -31.17280000     -69.52320000
C      -44.52020000     -32.09000000     -68.95920000
C      -43.55500000     -32.51190000     -69.86170000
C      -43.35790000     -32.04470000     -71.14210000
H      -44.30570000     -30.92530000     -72.76570000
H      -46.30220000     -30.88110000     -68.88880000
H      -42.85420000     -33.20360000     -69.44240000
H      -42.54970000     -32.37500000     -71.81430000
C      -44.66780000     -32.47690000     -67.53660000
H      -45.11060000     -31.63290000     -67.05590000
H      -43.70110000     -32.70280000     -67.07100000
C      -46.56330000     -29.94700000     -71.41320000
H      -47.37630000     -29.92160000     -70.73400000
H      -46.22310000     -28.91240000     -71.64480000
S      -45.76560000     -33.88620000     -67.22260000
S      -47.25170000     -30.54490000     -73.06180000
C      -45.30930000     -35.21000000     -68.45060000
H      -44.19770000     -35.17170000     -68.71190000
H      -45.67110000     -36.16300000     -67.93630000
C      -48.28040000     -31.96990000     -72.70150000
H      -48.74980000     -32.10640000     -73.68110000
H      -49.16690000     -31.77150000     -72.01740000
C      -47.46410000     -33.28240000     -72.17450000
H      -47.06400000     -32.96880000     -71.22470000
H      -48.20190000     -34.07470000     -71.95200000
C      -46.03320000     -35.17500000     -69.83540000
H      -46.33720000     -34.12350000     -70.00710000
H      -46.95950000     -35.75870000     -69.69540000
C      -45.21180000     -35.49570000     -71.02880000
C      -44.17240000     -36.38470000     -70.97730000
C      -45.42020000     -34.81720000     -72.31590000
H      -43.82970000     -36.96870000     -70.10990000
C      -44.35840000     -35.21140000     -73.11590000
C      -46.24710000     -33.80030000     -72.88600000
C      -45.87610000     -33.51380000     -74.15460000
S      -43.25440000     -36.42630000     -72.46670000
S      -44.41450000     -34.39440000     -74.67030000
H      -46.41030000     -32.87900000     -74.88510000
