40
Properties=species:S:1:pos:R:3 #=T CELL(abcABC):=T 1.889726e+02=T 90.00000=T Traj:=T positionsangstrom=T Step:=T 0=T Bead:=T pbc="F F F"
C      -44.84300000     -30.64710000     -71.56920000
C      -46.08620000     -31.02240000     -70.96770000
C      -46.10710000     -31.77550000     -69.79580000
C      -44.94760000     -32.35850000     -69.28260000
C      -43.70850000     -32.13660000     -70.00710000
C      -43.66410000     -31.20710000     -71.09300000
H      -44.86350000     -29.99880000     -72.42100000
H      -47.00670000     -32.08660000     -69.33000000
H      -42.79040000     -32.58360000     -69.63840000
H      -42.69720000     -30.95470000     -71.58080000
C      -45.01610000     -33.08290000     -68.00590000
H      -45.07760000     -32.50140000     -67.18580000
H      -44.17600000     -33.72300000     -67.82560000
C      -47.42530000     -30.64350000     -71.60360000
H      -48.35580000     -31.09340000     -71.15860000
H      -47.56610000     -29.54850000     -71.55960000
S      -46.50220000     -34.17790000     -67.71880000
S      -47.55010000     -31.08500000     -73.45610000
C      -46.03030000     -35.75920000     -68.57840000
H      -44.96130000     -35.97380000     -68.42120000
H      -46.58800000     -36.50850000     -68.04380000
C      -48.13880000     -32.90970000     -73.55240000
H      -48.02600000     -33.30020000     -74.51930000
H      -49.23040000     -32.79880000     -73.34860000
C      -47.34490000     -33.87700000     -72.59340000
H      -47.32480000     -33.54990000     -71.60360000
H      -47.99910000     -34.76040000     -72.70350000
C      -46.20940000     -35.71930000     -70.11200000
H      -46.98650000     -35.06600000     -70.47380000
H      -46.50980000     -36.70690000     -70.31090000
C      -44.90240000     -35.42320000     -70.80730000
C      -43.64480000     -35.79460000     -70.36230000
C      -44.86810000     -34.62310000     -72.04800000
H      -43.34480000     -36.29820000     -69.45540000
C      -43.56100000     -34.50550000     -72.55540000
C      -45.91580000     -34.10340000     -72.99480000
C      -45.32930000     -33.50990000     -74.08360000
S      -42.36150000     -35.20130000     -71.44530000
S      -43.55390000     -33.74080000     -74.11640000
H      -45.75580000     -32.94770000     -74.93010000
