40
Properties=species:S:1:pos:R:3 #=T CELL(abcABC):=T 1.889726e+02=T 90.00000=T Traj:=T positionsangstrom=T Step:=T 0=T Bead:=T pbc="F F F"
C      -45.22800000     -30.88750000     -71.69640000
C      -46.51550000     -31.41580000     -71.33330000
C      -46.66770000     -32.12830000     -70.10480000
C      -45.55210000     -32.38240000     -69.29700000
C      -44.30570000     -31.82980000     -69.62860000
C      -44.15650000     -31.05980000     -70.76770000
H      -45.06880000     -30.23260000     -72.59940000
H      -47.65750000     -32.53980000     -69.97580000
H      -43.40180000     -32.07490000     -68.98970000
H      -43.15840000     -30.73230000     -71.05330000
C      -45.61050000     -33.22110000     -68.01850000
H      -45.66710000     -32.56040000     -67.16510000
H      -44.69290000     -33.81380000     -67.96850000
C      -47.68570000     -31.26990000     -72.30880000
H      -48.51910000     -31.91420000     -72.03090000
H      -47.97320000     -30.17310000     -72.25830000
S      -46.97060000     -34.40120000     -67.90270000
S      -47.37910000     -31.62200000     -74.05010000
C      -46.25000000     -35.86310000     -68.64670000
H      -45.27380000     -36.14440000     -68.26930000
H      -46.94790000     -36.71870000     -68.43830000
C      -47.66140000     -33.42830000     -74.21520000
H      -47.42040000     -33.72550000     -75.19880000
H      -48.70190000     -33.63370000     -74.03540000
C      -46.90540000     -34.31810000     -73.25940000
H      -47.44650000     -34.36390000     -72.23590000
H      -46.88470000     -35.32900000     -73.56840000
C      -46.09280000     -35.76220000     -70.16700000
H      -46.89340000     -35.31370000     -70.70060000
H      -46.18150000     -36.78760000     -70.52810000
C      -44.76780000     -35.28640000     -70.73080000
C      -43.63230000     -35.42290000     -70.00710000
C      -44.58600000     -34.45200000     -71.93530000
H      -43.55890000     -35.60650000     -68.97900000
C      -43.20860000     -34.10160000     -72.09750000
C      -45.38740000     -33.92060000     -73.00770000
C      -44.66350000     -33.20690000     -73.91650000
S      -42.23490000     -34.65730000     -70.79980000
S      -42.91660000     -33.07760000     -73.42790000
H      -45.13650000     -32.72410000     -74.78900000
