40
Properties=species:S:1:pos:R:3 #=T CELL(abcABC):=T 1.889726e+02=T 90.00000=T Traj:=T positionsangstrom=T Step:=T 0=T Bead:=T pbc="F F F"
C      -45.63430000     -30.69000000     -71.63630000
C      -46.86010000     -31.42310000     -71.46800000
C      -46.92200000     -32.29900000     -70.37620000
C      -45.88360000     -32.39450000     -69.37890000
C      -44.75360000     -31.54980000     -69.51180000
C      -44.70100000     -30.67900000     -70.62010000
H      -45.43050000     -30.04980000     -72.52200000
H      -47.84190000     -32.89860000     -70.25000000
H      -43.92070000     -31.65520000     -68.86810000
H      -43.88840000     -29.99180000     -70.70350000
C      -45.92090000     -33.37330000     -68.22550000
H      -46.03300000     -32.85260000     -67.30170000
H      -44.98650000     -33.92890000     -68.11830000
C      -48.04770000     -31.38370000     -72.47640000
H      -48.80750000     -32.00830000     -71.96190000
H      -48.44270000     -30.34140000     -72.48940000
S      -47.27790000     -34.61980000     -68.35800000
S      -47.59370000     -31.69580000     -74.27170000
C      -46.23980000     -36.12730000     -68.81600000
H      -45.55700000     -36.40050000     -68.02360000
H      -46.94690000     -36.96480000     -68.84760000
C      -47.24220000     -33.50700000     -74.31850000
H      -46.61840000     -33.65670000     -75.19070000
H      -48.13520000     -34.03490000     -74.46530000
C      -46.57150000     -34.32500000     -73.21770000
H      -47.10300000     -34.13500000     -72.32350000
H      -46.54640000     -35.40450000     -73.39660000
C      -45.66470000     -36.09600000     -70.31960000
H      -46.57050000     -35.66990000     -70.84720000
H      -45.51700000     -37.06930000     -70.71870000
C      -44.47330000     -35.21240000     -70.52770000
C      -43.41240000     -35.11020000     -69.62160000
C      -44.24700000     -34.50600000     -71.73250000
H      -43.25080000     -35.77790000     -68.73940000
C      -42.97970000     -33.95820000     -71.82760000
C      -45.05940000     -33.97060000     -72.89110000
C      -44.27290000     -33.24250000     -73.78140000
S      -42.07160000     -34.30480000     -70.36630000
S      -42.56710000     -33.13500000     -73.30750000
H      -44.58970000     -32.93610000     -74.77240000
