40
Properties=species:S:1:pos:R:3 #=T CELL(abcABC):=T 1.889726e+02=T 90.00000=T Traj:=T positionsangstrom=T Step:=T 0=T Bead:=T pbc="F F F"
C      -45.07260000     -30.81280000     -71.63440000
C      -46.29770000     -31.41900000     -71.25260000
C      -46.40480000     -32.20710000     -70.06590000
C      -45.28000000     -32.40420000     -69.26140000
C      -44.04110000     -31.91450000     -69.66380000
C      -43.95770000     -31.13050000     -70.82250000
H      -45.11790000     -30.18100000     -72.55160000
H      -47.41200000     -32.65930000     -69.85400000
H      -43.08340000     -32.07230000     -69.16710000
H      -42.94910000     -30.73810000     -71.18560000
C      -45.38970000     -33.12340000     -67.96690000
H      -45.42010000     -32.42540000     -67.12300000
H      -44.46760000     -33.74740000     -67.74370000
C      -47.57490000     -31.05930000     -72.00210000
H      -48.43360000     -31.48310000     -71.41880000
H      -47.75320000     -30.00710000     -72.02720000
S      -46.75870000     -34.38530000     -67.76800000
S      -47.54460000     -31.39900000     -73.89630000
C      -46.23920000     -35.95840000     -68.66810000
H      -45.34400000     -36.27690000     -68.11720000
H      -46.97240000     -36.74850000     -68.48010000
C      -47.71390000     -33.23770000     -74.14930000
H      -47.18890000     -33.35010000     -75.13270000
H      -48.76220000     -33.54010000     -74.32450000
C      -47.10750000     -34.13190000     -73.07380000
H      -47.62680000     -33.96630000     -72.11440000
H      -47.37660000     -35.19590000     -73.45990000
C      -46.11160000     -35.83790000     -70.20660000
H      -46.99040000     -35.36430000     -70.68520000
H      -46.20140000     -36.93800000     -70.49360000
C      -44.82420000     -35.27890000     -70.76260000
C      -43.62960000     -35.48020000     -70.17590000
C      -44.72450000     -34.58660000     -72.01440000
H      -43.46410000     -35.86690000     -69.15650000
C      -43.36200000     -34.18800000     -72.22560000
C      -45.57560000     -34.04180000     -73.00310000
C      -44.85590000     -33.44970000     -74.01630000
S      -42.30160000     -34.73130000     -70.94850000
S      -43.19110000     -33.15180000     -73.65690000
H      -45.15980000     -33.07640000     -74.97780000
