40
Properties=species:S:1:pos:R:3 #=T CELL(abcABC):=T 1.889726e+02=T 90.00000=T Traj:=T positionsangstrom=T Step:=T 0=T Bead:=T pbc="F F F"
C      -47.29830000     -31.57760000     -71.29550000
C      -47.85940000     -32.63930000     -72.03590000
C      -48.27600000     -33.74430000     -71.33120000
C      -48.04240000     -33.94730000     -69.95800000
C      -47.38260000     -32.90430000     -69.31660000
C      -46.96030000     -31.74080000     -69.92900000
H      -46.94410000     -30.74610000     -71.86530000
H      -48.48740000     -34.60920000     -71.97360000
H      -47.16530000     -32.98930000     -68.25290000
H      -46.53420000     -30.89350000     -69.33020000
C      -48.34730000     -35.21930000     -69.20040000
H      -49.45630000     -35.29430000     -69.25260000
H      -48.32280000     -35.00370000     -68.13530000
C      -47.97900000     -32.42060000     -73.59910000
H      -48.12550000     -33.37270000     -74.13550000
H      -48.83640000     -31.78270000     -73.82870000
S      -47.37640000     -36.70570000     -69.64840000
S      -46.45770000     -31.61610000     -74.26850000
C      -45.62390000     -36.06350000     -69.47070000
H      -45.62350000     -35.46900000     -68.58850000
H      -44.85130000     -36.83180000     -69.38730000
C      -45.43750000     -33.08890000     -74.85690000
H      -44.62620000     -32.69710000     -75.49480000
H      -46.06890000     -33.76290000     -75.45730000
C      -44.89810000     -33.87780000     -73.62310000
H      -45.65030000     -34.27590000     -73.06080000
H      -44.35300000     -34.67490000     -74.08540000
C      -45.15290000     -35.24660000     -70.67000000
H      -45.93430000     -34.54810000     -70.94050000
H      -44.99470000     -35.86710000     -71.55250000
C      -43.96520000     -34.34300000     -70.40490000
C      -43.32830000     -34.21390000     -69.17750000
C      -43.41630000     -33.38980000     -71.37950000
H      -43.69040000     -34.60670000     -68.22220000
C      -42.40890000     -32.61420000     -70.85190000
C      -43.75520000     -33.15810000     -72.77520000
C      -43.02330000     -32.10780000     -73.22500000
S      -42.14280000     -32.96930000     -69.18940000
S      -41.85420000     -31.44640000     -72.05850000
H      -43.07850000     -31.54330000     -74.15980000
