40
Properties=species:S:1:pos:R:3 #=T CELL(abcABC):=T 1.889726e+02=T 90.00000=T Traj:=T positionsangstrom=T Step:=T 0=T Bead:=T pbc="F F F"
C      -47.18570000     -31.24090000     -70.95100000
C      -47.50570000     -32.26850000     -71.84960000
C      -47.75420000     -33.53080000     -71.24880000
C      -47.62110000     -33.79140000     -69.88720000
C      -47.09870000     -32.73460000     -69.10180000
C      -46.99850000     -31.45370000     -69.59240000
H      -47.14010000     -30.19080000     -71.29090000
H      -48.11210000     -34.32850000     -71.95120000
H      -46.99830000     -32.89620000     -68.01180000
H      -46.84400000     -30.61120000     -68.98570000
C      -48.18720000     -34.98430000     -69.15810000
H      -49.23350000     -35.27940000     -69.29380000
H      -48.17610000     -34.81950000     -68.02100000
C      -47.82560000     -32.08430000     -73.30150000
H      -48.39330000     -32.95880000     -73.64850000
H      -48.51510000     -31.21250000     -73.33080000
S      -47.36750000     -36.59090000     -69.57600000
S      -46.38700000     -31.74460000     -74.47510000
C      -45.64450000     -36.08150000     -69.21550000
H      -45.77920000     -35.20310000     -68.61110000
H      -45.16200000     -36.87330000     -68.67280000
C      -45.73780000     -33.42410000     -74.81060000
H      -44.97560000     -33.32120000     -75.61760000
H      -46.52120000     -34.03880000     -75.31170000
C      -45.16670000     -34.19870000     -73.51960000
H      -45.94340000     -34.32690000     -72.78720000
H      -44.80380000     -35.12880000     -73.86410000
C      -44.92840000     -35.57480000     -70.49100000
H      -45.73860000     -35.33460000     -71.17900000
H      -44.50870000     -36.43090000     -71.03830000
C      -43.91020000     -34.50710000     -70.34010000
C      -43.29780000     -34.14720000     -69.12390000
C      -43.55480000     -33.66230000     -71.46540000
H      -43.25350000     -34.80410000     -68.26430000
C      -42.55600000     -32.71330000     -71.13960000
C      -44.06100000     -33.39230000     -72.85140000
C      -43.30910000     -32.40610000     -73.47390000
S      -42.24490000     -32.75300000     -69.39620000
S      -42.11180000     -31.66260000     -72.41520000
H      -43.40660000     -31.98180000     -74.46030000
