40
Properties=species:S:1:pos:R:3 #=T CELL(abcABC):=T 1.889726e+02=T 90.00000=T Traj:=T positionsangstrom=T Step:=T 0=T Bead:=T pbc="F F F"
C      -46.24850000     -31.33910000     -71.44780000
C      -47.23440000     -32.26840000     -71.84190000
C      -47.88930000     -33.06660000     -70.85410000
C      -47.27520000     -33.20030000     -69.56650000
C      -46.31120000     -32.23750000     -69.20630000
C      -45.83630000     -31.30750000     -70.12700000
H      -45.76950000     -30.58300000     -72.13140000
H      -48.69510000     -33.71590000     -71.20480000
H      -45.81940000     -32.29970000     -68.20440000
H      -45.05390000     -30.63050000     -69.82020000
C      -48.05380000     -34.20100000     -68.68310000
H      -49.08470000     -34.13930000     -69.05760000
H      -48.19880000     -33.83030000     -67.63900000
C      -47.92770000     -32.05590000     -73.18180000
H      -48.78570000     -32.69710000     -73.24600000
H      -48.30960000     -31.03350000     -73.12890000
S      -47.52020000     -35.96680000     -68.57290000
S      -46.92170000     -32.14990000     -74.69750000
C      -45.75110000     -35.73830000     -68.87630000
H      -45.62970000     -34.86610000     -68.24730000
H      -45.15370000     -36.50570000     -68.48230000
C      -46.07870000     -33.79120000     -74.78610000
H      -45.38990000     -33.84120000     -75.57750000
H      -46.84340000     -34.60200000     -75.11250000
C      -45.49450000     -34.34930000     -73.48970000
H      -46.13340000     -34.18490000     -72.65920000
H      -45.45160000     -35.46820000     -73.58180000
C      -45.33840000     -35.38690000     -70.38590000
H      -46.25420000     -35.13830000     -70.92780000
H      -45.22210000     -36.36530000     -70.87460000
C      -44.18300000     -34.47760000     -70.44060000
C      -43.35340000     -34.21330000     -69.37100000
C      -43.77030000     -33.74540000     -71.59070000
H      -43.61970000     -34.37920000     -68.31180000
C      -42.63030000     -32.99900000     -71.32280000
C      -44.21120000     -33.69670000     -72.99700000
C      -43.42730000     -32.86260000     -73.74370000
S      -42.08350000     -33.00680000     -69.69590000
S      -42.09890000     -32.19320000     -72.79500000
H      -43.59790000     -32.48030000     -74.69290000
