40
Properties=species:S:1:pos:R:3 #=T CELL(abcABC):=T 1.889726e+02=T 90.00000=T Traj:=T positionsangstrom=T Step:=T 0=T Bead:=T pbc="F F F"
C      -48.94690000     -32.40230000     -71.92000000
C      -47.79150000     -32.62480000     -71.16960000
C      -46.92260000     -33.59860000     -71.62630000
C      -47.16900000     -34.36120000     -72.77200000
C      -48.35300000     -34.15240000     -73.52900000
C      -49.17510000     -33.11360000     -73.06780000
H      -49.74840000     -31.72230000     -71.58240000
H      -46.17620000     -33.97500000     -70.92530000
H      -48.41800000     -34.63550000     -74.50170000
H      -50.04070000     -32.90890000     -73.60860000
C      -46.26970000     -35.53940000     -73.12310000
H      -46.77990000     -36.43150000     -73.59560000
H      -45.72980000     -35.84100000     -72.19300000
C      -47.51470000     -31.82450000     -69.89320000
H      -48.51050000     -31.50390000     -69.43920000
H      -47.10590000     -32.52580000     -69.19760000
S      -45.03670000     -35.05220000     -74.51000000
S      -46.47950000     -30.26670000     -69.94900000
C      -44.35070000     -33.40390000     -73.98950000
H      -44.18420000     -32.88850000     -74.88990000
H      -45.09140000     -32.72820000     -73.48920000
C      -45.35720000     -30.49510000     -71.44790000
H      -45.27480000     -29.53560000     -71.97670000
H      -45.77610000     -31.19610000     -72.17090000
C      -43.96840000     -30.89050000     -71.06790000
H      -43.44200000     -31.04800000     -72.01220000
H      -43.38520000     -30.00810000     -70.60640000
C      -43.08650000     -33.51610000     -73.10290000
H      -42.57230000     -32.53250000     -73.02820000
H      -42.36350000     -34.07970000     -73.68110000
C      -43.26480000     -34.15400000     -71.79030000
C      -43.14090000     -35.54700000     -71.73200000
C      -43.67470000     -33.51890000     -70.57830000
H      -42.66330000     -36.08160000     -72.50660000
C      -43.70010000     -34.39660000     -69.45910000
C      -43.88550000     -32.13210000     -70.21610000
C      -44.00050000     -32.07790000     -68.82890000
S      -43.47760000     -36.06950000     -70.04850000
S      -44.16040000     -33.62160000     -68.01810000
H      -44.16750000     -31.22910000     -68.23580000
