40
Properties=species:S:1:pos:R:3 #=T CELL(abcABC):=T 1.889726e+02=T 90.00000=T Traj:=T positionsangstrom=T Step:=T 0=T Bead:=T pbc="F F F"
C      -46.29090000     -31.12180000     -71.68000000
C      -47.39330000     -32.01120000     -71.81620000
C      -47.76430000     -32.86880000     -70.74860000
C      -47.20310000     -32.71090000     -69.50280000
C      -46.10260000     -31.81160000     -69.39620000
C      -45.59550000     -31.11000000     -70.49860000
H      -45.88580000     -30.54830000     -72.45170000
H      -48.61890000     -33.55670000     -70.79740000
H      -45.48570000     -31.80760000     -68.49210000
H      -44.59510000     -30.64450000     -70.40410000
C      -47.61050000     -33.58360000     -68.32040000
H      -48.61360000     -33.35660000     -67.95760000
H      -46.85130000     -33.49070000     -67.55060000
C      -48.02720000     -32.34560000     -73.14180000
H      -48.46660000     -33.32930000     -73.14060000
H      -48.87210000     -31.66470000     -73.38630000
S      -47.80340000     -35.35380000     -68.92010000
S      -46.74170000     -32.12050000     -74.46020000
C      -45.98260000     -35.76000000     -68.85940000
H      -45.42910000     -35.02940000     -68.26040000
H      -45.99800000     -36.72780000     -68.30750000
C      -46.26830000     -33.97040000     -74.53310000
H      -45.49580000     -34.15660000     -75.36240000
H      -47.15130000     -34.53450000     -74.75330000
C      -45.71070000     -34.49270000     -73.27470000
H      -46.49680000     -34.50290000     -72.42600000
H      -45.37400000     -35.55790000     -73.30330000
C      -45.25240000     -35.79260000     -70.26580000
H      -45.99090000     -35.61940000     -71.05000000
H      -44.86770000     -36.85560000     -70.42030000
C      -44.12470000     -34.82990000     -70.35360000
C      -43.05720000     -34.73880000     -69.48300000
C      -43.85550000     -33.99970000     -71.52650000
H      -42.95430000     -35.33510000     -68.60770000
C      -42.73400000     -33.16280000     -71.34680000
C      -44.39930000     -33.75150000     -72.87040000
C      -43.69890000     -32.83670000     -73.64440000
S      -41.87150000     -33.51810000     -69.87790000
S      -42.24580000     -32.25830000     -72.79420000
H      -43.98200000     -32.59080000     -74.71340000
