40
Properties=species:S:1:pos:R:3 #=T CELL(abcABC):=T 1.889726e+02=T 90.00000=T Traj:=T positionsangstrom=T Step:=T 0=T Bead:=T pbc="F F F"
C      -42.70480000     -33.05460000     -71.54980000
C      -43.26190000     -32.65580000     -72.77080000
C      -44.03350000     -31.50730000     -72.80920000
C      -44.28600000     -30.77500000     -71.66310000
C      -43.59750000     -31.13470000     -70.49490000
C      -42.76280000     -32.27160000     -70.41050000
H      -42.03740000     -33.87370000     -71.58910000
H      -44.38280000     -31.22070000     -73.74640000
H      -43.68230000     -30.51830000     -69.65520000
H      -42.28760000     -32.52280000     -69.49110000
C      -45.15380000     -29.61140000     -71.50700000
H      -45.52900000     -29.15440000     -72.49080000
H      -44.69800000     -28.81160000     -71.05770000
C      -43.22320000     -33.43790000     -74.06620000
H      -43.57460000     -32.73670000     -74.76050000
H      -42.24420000     -33.81390000     -74.30890000
S      -46.73450000     -29.97640000     -70.54860000
S      -44.43760000     -34.88620000     -74.24160000
C      -47.46500000     -31.23120000     -71.72730000
H      -48.39370000     -30.70380000     -72.00860000
H      -46.87130000     -31.48540000     -72.63310000
C      -46.14430000     -34.14010000     -74.05180000
H      -46.71950000     -34.08250000     -75.00530000
H      -46.11510000     -33.06850000     -73.63300000
C      -46.90980000     -35.01020000     -73.11040000
H      -47.80850000     -34.45080000     -72.82530000
H      -47.10220000     -35.92930000     -73.61070000
C      -47.83180000     -32.57250000     -70.96430000
H      -48.27980000     -33.22060000     -71.80120000
H      -48.72010000     -32.39660000     -70.43580000
C      -46.82590000     -33.33020000     -70.16410000
C      -46.36180000     -33.04070000     -68.93410000
C      -46.35300000     -34.62650000     -70.60850000
H      -46.75560000     -32.18470000     -68.39640000
C      -45.58020000     -35.24050000     -69.60080000
C      -46.34960000     -35.43240000     -71.80930000
C      -45.73020000     -36.62480000     -71.65220000
S      -45.33780000     -34.21070000     -68.14180000
S      -44.90880000     -36.80870000     -70.05640000
H      -45.64190000     -37.40170000     -72.38450000
