40
Properties=species:S:1:pos:R:3 #=T CELL(abcABC):=T 1.889726e+02=T 90.00000=T Traj:=T positionsangstrom=T Step:=T 0=T Bead:=T pbc="F F F"
C      -42.76130000     -33.19120000     -72.02450000
C      -43.43780000     -32.62600000     -73.07520000
C      -44.11720000     -31.41360000     -72.77920000
C      -44.14140000     -30.84850000     -71.46460000
C      -43.48340000     -31.56370000     -70.48080000
C      -42.79700000     -32.70590000     -70.72250000
H      -42.27590000     -34.08950000     -72.30420000
H      -44.59580000     -30.84820000     -73.65650000
H      -43.61410000     -31.11160000     -69.47840000
H      -42.18970000     -33.20160000     -69.93760000
C      -45.01810000     -29.67080000     -71.34690000
H      -45.07390000     -29.26780000     -72.31780000
H      -44.58890000     -28.83440000     -70.64650000
C      -43.48710000     -33.27360000     -74.40320000
H      -43.77040000     -32.49460000     -75.17660000
H      -42.48070000     -33.63390000     -74.60740000
S      -46.72480000     -29.89900000     -70.63980000
S      -44.67500000     -34.71470000     -74.46140000
C      -47.33590000     -31.38210000     -71.46850000
H      -48.25160000     -31.07090000     -72.14280000
H      -46.57030000     -31.70780000     -72.17100000
C      -46.25560000     -34.06280000     -73.94740000
H      -46.93960000     -34.12190000     -74.87590000
H      -46.13440000     -33.05510000     -73.55040000
C      -47.11570000     -34.89720000     -72.89860000
H      -48.11970000     -34.42070000     -72.77510000
H      -47.39420000     -35.85970000     -73.34100000
C      -47.86270000     -32.54000000     -70.57540000
H      -48.42720000     -33.17220000     -71.23770000
H      -48.67120000     -32.06400000     -69.87680000
C      -46.81480000     -33.35550000     -69.87810000
C      -46.37480000     -33.09830000     -68.60440000
C      -46.38870000     -34.64950000     -70.42730000
H      -46.51340000     -32.22310000     -68.03700000
C      -45.54690000     -35.27830000     -69.48940000
C      -46.32140000     -35.26660000     -71.74860000
C      -45.46770000     -36.32840000     -71.78580000
S      -45.24910000     -34.37070000     -67.96730000
S      -44.71040000     -36.70750000     -70.24490000
H      -45.30860000     -37.03110000     -72.58460000
