40
Properties=species:S:1:pos:R:3 #=T CELL(abcABC):=T 1.889726e+02=T 90.00000=T Traj:=T positionsangstrom=T Step:=T 0=T Bead:=T pbc="F F F"
C      -42.68100000     -33.00270000     -71.59860000
C      -43.34320000     -32.61520000     -72.74180000
C      -44.12760000     -31.45840000     -72.70800000
C      -44.21130000     -30.73570000     -71.57810000
C      -43.57760000     -31.15340000     -70.36950000
C      -42.77690000     -32.30930000     -70.38920000
H      -42.19690000     -33.95140000     -71.53560000
H      -44.70700000     -31.18200000     -73.54040000
H      -43.76060000     -30.67660000     -69.43730000
H      -42.23920000     -32.68060000     -69.46190000
C      -45.13080000     -29.55540000     -71.50920000
H      -45.44940000     -29.26050000     -72.50270000
H      -44.61580000     -28.77770000     -70.97830000
C      -43.09560000     -33.47120000     -73.95210000
H      -43.12090000     -32.88490000     -74.93800000
H      -42.03040000     -33.84950000     -73.93090000
S      -46.65350000     -29.95650000     -70.60920000
S      -44.28580000     -34.94640000     -74.09340000
C      -47.38660000     -31.17040000     -71.77960000
H      -48.20190000     -30.62350000     -72.21570000
H      -46.74320000     -31.40340000     -72.67630000
C      -45.92860000     -34.11660000     -73.77120000
H      -46.21470000     -33.71470000     -74.77580000
H      -45.80170000     -33.40310000     -73.04060000
C      -46.95820000     -35.20090000     -73.24790000
H      -48.01640000     -34.84050000     -73.29880000
H      -47.04620000     -36.06930000     -73.90320000
C      -47.96690000     -32.43210000     -71.04180000
H      -48.49870000     -33.11160000     -71.76740000
H      -48.66100000     -32.13250000     -70.26460000
C      -46.86260000     -33.38850000     -70.33330000
C      -46.38440000     -32.91050000     -69.15140000
C      -46.43340000     -34.70180000     -70.67590000
H      -46.66550000     -32.01010000     -68.65310000
C      -45.63080000     -35.23700000     -69.62920000
C      -46.45820000     -35.57260000     -71.84740000
C      -45.71090000     -36.71280000     -71.63390000
S      -45.39820000     -34.16030000     -68.31210000
S      -45.08980000     -36.78290000     -69.97020000
H      -45.54170000     -37.58350000     -72.26690000
