40
Properties=species:S:1:pos:R:3 #=T CELL(abcABC):=T 1.889726e+02=T 90.00000=T Traj:=T positionsangstrom=T Step:=T 0=T Bead:=T pbc="F F F"
C      -42.95000000     -33.53180000     -72.76310000
C      -43.90760000     -32.74640000     -73.44150000
C      -44.36620000     -31.64850000     -72.78740000
C      -44.06180000     -31.40620000     -71.40960000
C      -43.18350000     -32.26590000     -70.76400000
C      -42.52920000     -33.25540000     -71.49100000
H      -42.43580000     -34.31780000     -73.38530000
H      -45.01960000     -30.97990000     -73.42830000
H      -42.91850000     -32.15490000     -69.72730000
H      -41.72910000     -33.85740000     -71.06770000
C      -44.61120000     -30.17640000     -70.74530000
H      -44.83370000     -29.36130000     -71.51570000
H      -43.92820000     -29.72000000     -70.11640000
C      -44.29170000     -32.90260000     -74.87740000
H      -44.33400000     -31.99580000     -75.32570000
H      -43.48790000     -33.48930000     -75.42720000
S      -46.08900000     -30.26040000     -69.59950000
S      -45.94650000     -33.74860000     -75.08090000
C      -47.21300000     -31.22490000     -70.74700000
H      -48.03610000     -30.57270000     -71.01740000
H      -46.58080000     -31.35170000     -71.54340000
C      -46.90620000     -33.50860000     -73.52240000
H      -47.72350000     -32.85540000     -73.88960000
H      -46.23900000     -32.94390000     -72.96850000
C      -47.27880000     -34.80060000     -72.79030000
H      -48.19440000     -34.61370000     -72.26130000
H      -47.47700000     -35.63750000     -73.39640000
C      -47.74050000     -32.60830000     -70.25060000
H      -48.21560000     -33.21390000     -71.03080000
H      -48.49820000     -32.34800000     -69.50720000
C      -46.71710000     -33.48120000     -69.61610000
C      -46.19640000     -33.31520000     -68.36170000
C      -46.20310000     -34.63030000     -70.34000000
H      -46.27760000     -32.40860000     -67.78590000
C      -45.18680000     -35.25340000     -69.65690000
C      -46.27480000     -35.11460000     -71.72900000
C      -45.32660000     -36.11120000     -71.95070000
S      -44.93470000     -34.56520000     -68.03980000
S      -44.30700000     -36.43040000     -70.62140000
H      -45.01700000     -36.44860000     -72.95090000
