40
Properties=species:S:1:pos:R:3 #=T CELL(abcABC):=T 1.889726e+02=T 90.00000=T Traj:=T positionsangstrom=T Step:=T 0=T Bead:=T pbc="F F F"
C      -43.25670000     -33.59670000     -72.52010000
C      -43.87510000     -32.73210000     -73.41630000
C      -44.34590000     -31.49980000     -72.90550000
C      -44.10460000     -31.05800000     -71.60210000
C      -43.39450000     -31.97010000     -70.79230000
C      -43.03000000     -33.24020000     -71.19610000
H      -42.86730000     -34.46740000     -72.94320000
H      -44.88400000     -30.88690000     -73.58500000
H      -43.31690000     -31.67930000     -69.75980000
H      -42.51880000     -33.93690000     -70.52310000
C      -44.77450000     -29.82140000     -71.04440000
H      -45.37040000     -29.35800000     -71.76740000
H      -43.99930000     -29.15720000     -70.54000000
C      -44.06820000     -33.11520000     -74.84140000
H      -44.01820000     -32.14410000     -75.40700000
H      -43.30520000     -33.67610000     -75.25970000
S      -46.08930000     -30.35550000     -69.74280000
S      -45.56570000     -34.09000000     -75.14790000
C      -47.21260000     -31.23680000     -70.87690000
H      -48.00700000     -30.62730000     -71.13690000
H      -46.72850000     -31.37920000     -71.88330000
C      -46.72230000     -33.59820000     -73.74850000
H      -47.59560000     -33.31020000     -74.29520000
H      -46.39660000     -32.63660000     -73.25540000
C      -47.10240000     -34.79400000     -72.83680000
H      -48.11340000     -34.51350000     -72.57880000
H      -47.13600000     -35.75640000     -73.37640000
C      -47.76630000     -32.54380000     -70.38060000
H      -48.23880000     -33.03230000     -71.25330000
H      -48.55270000     -32.27440000     -69.71250000
C      -46.76410000     -33.44410000     -69.63490000
C      -46.40000000     -33.35850000     -68.32820000
C      -46.04120000     -34.46380000     -70.38930000
H      -46.81360000     -32.73750000     -67.51450000
C      -45.15710000     -35.15230000     -69.53930000
C      -46.12410000     -35.15990000     -71.65360000
C      -45.25270000     -36.22360000     -71.75990000
S      -45.06340000     -34.51530000     -67.95270000
S      -44.32170000     -36.40490000     -70.38100000
H      -45.28920000     -36.80650000     -72.63680000
