40
Properties=species:S:1:pos:R:3 #=T CELL(abcABC):=T 1.889726e+02=T 90.00000=T Traj:=T positionsangstrom=T Step:=T 0=T Bead:=T pbc="F F F"
C      -43.52980000     -32.95250000     -74.47950000
C      -43.16750000     -31.90920000     -73.60160000
C      -42.58080000     -32.28020000     -72.37480000
C      -42.25800000     -33.61750000     -72.06650000
C      -42.67750000     -34.64320000     -72.94410000
C      -43.39220000     -34.30650000     -74.08870000
H      -44.11150000     -32.78680000     -75.32750000
H      -42.42880000     -31.55110000     -71.61280000
H      -42.44470000     -35.64280000     -72.61000000
H      -43.73910000     -35.19250000     -74.70660000
C      -41.61870000     -33.89090000     -70.72720000
H      -41.86910000     -33.12120000     -70.04710000
H      -40.49430000     -33.98920000     -70.62960000
C      -43.57170000     -30.49630000     -73.88590000
H      -42.70310000     -29.88830000     -74.09740000
H      -44.18890000     -30.42220000     -74.81990000
S      -42.21040000     -35.43030000     -69.86250000
S      -44.41120000     -29.64900000     -72.47870000
C      -44.08250000     -35.35280000     -69.87280000
H      -44.31530000     -35.41300000     -70.86350000
H      -44.31060000     -36.27050000     -69.37030000
C      -45.88300000     -30.79690000     -72.33320000
H      -46.02360000     -31.24410000     -73.28610000
H      -46.79710000     -30.24270000     -72.01710000
C      -45.65320000     -31.93720000     -71.28670000
H      -44.82620000     -32.53580000     -71.60890000
H      -45.41800000     -31.47550000     -70.37520000
C      -44.89870000     -34.29890000     -69.02500000
H      -44.57620000     -33.29800000     -69.22370000
H      -44.72800000     -34.58770000     -67.96500000
C      -46.38330000     -34.51080000     -69.25800000
C      -47.05770000     -35.61150000     -68.80350000
C      -47.17190000     -33.74120000     -70.19750000
H      -46.81250000     -36.24930000     -68.00110000
C      -48.46290000     -34.23050000     -70.34620000
C      -46.88530000     -32.74120000     -71.17060000
C      -48.05980000     -32.50080000     -71.89570000
S      -48.73590000     -35.64880000     -69.41130000
S      -49.49550000     -33.35430000     -71.39500000
H      -48.08170000     -31.81100000     -72.69300000
