40
Properties=species:S:1:pos:R:3 #=T CELL(abcABC):=T 1.889726e+02=T 90.00000=T Traj:=T positionsangstrom=T Step:=T 0=T Bead:=T pbc="F F F"
C      -43.19430000     -33.01990000     -74.32820000
C      -42.86400000     -31.93440000     -73.49630000
C      -42.27540000     -32.26530000     -72.25180000
C      -42.11830000     -33.55440000     -71.73880000
C      -42.40840000     -34.60490000     -72.65440000
C      -42.82860000     -34.29410000     -73.98530000
H      -43.52210000     -32.89620000     -75.37980000
H      -41.79240000     -31.34900000     -71.79000000
H      -42.28940000     -35.58990000     -72.25490000
H      -42.91990000     -35.01100000     -74.74170000
C      -41.70270000     -33.74900000     -70.23490000
H      -42.06800000     -32.94300000     -69.56260000
H      -40.59010000     -33.77260000     -70.19230000
C      -43.16680000     -30.52360000     -74.01100000
H      -42.32900000     -29.83500000     -73.90210000
H      -43.47300000     -30.51330000     -75.02870000
S      -42.28280000     -35.34800000     -69.52970000
S      -44.41100000     -29.75720000     -72.86270000
C      -44.10950000     -35.38040000     -69.71580000
H      -44.29960000     -35.45180000     -70.79230000
H      -44.32480000     -36.34700000     -69.35920000
C      -45.87190000     -30.88390000     -72.68700000
H      -45.85110000     -31.66350000     -73.49420000
H      -46.80790000     -30.31810000     -72.78940000
C      -45.93390000     -31.67540000     -71.35910000
H      -45.00670000     -32.19190000     -71.27180000
H      -46.03560000     -30.98930000     -70.53090000
C      -45.00940000     -34.24250000     -69.02100000
H      -44.73830000     -33.18080000     -69.28900000
H      -45.02120000     -34.27000000     -67.89660000
C      -46.47140000     -34.54990000     -69.46230000
C      -47.19260000     -35.54780000     -68.87590000
C      -47.25040000     -33.88000000     -70.45160000
H      -46.86750000     -36.28720000     -68.10630000
C      -48.57910000     -34.38630000     -70.53900000
C      -47.09510000     -32.67680000     -71.37360000
C      -48.30430000     -32.35340000     -71.98080000
S      -48.85840000     -35.73920000     -69.32950000
S      -49.70440000     -33.40100000     -71.50470000
H      -48.51260000     -31.46110000     -72.63030000
