40
Properties=species:S:1:pos:R:3 #=T CELL(abcABC):=T 1.889726e+02=T 90.00000=T Traj:=T positionsangstrom=T Step:=T 0=T Bead:=T pbc="F F F"
C      -48.92770000     -32.08670000     -71.80580000
C      -47.80720000     -32.43600000     -71.12220000
C      -47.00900000     -33.56420000     -71.51540000
C      -47.42230000     -34.38980000     -72.57640000
C      -48.63600000     -34.07140000     -73.21410000
C      -49.38810000     -32.94800000     -72.81030000
H      -49.43990000     -31.15380000     -71.60960000
H      -46.15990000     -33.90860000     -70.99830000
H      -49.06610000     -34.74650000     -73.91700000
H      -50.29810000     -32.90210000     -73.45460000
C      -46.53330000     -35.53550000     -72.95440000
H      -47.14160000     -36.34480000     -73.37010000
H      -45.78380000     -35.87660000     -72.23190000
C      -47.31840000     -31.58800000     -69.93600000
H      -48.11620000     -31.21530000     -69.31620000
H      -46.54510000     -32.08620000     -69.31330000
S      -45.43730000     -35.09660000     -74.44890000
S      -46.45890000     -30.00250000     -70.61210000
C      -44.57100000     -33.56580000     -73.91740000
H      -44.25440000     -33.10220000     -74.89010000
H      -45.17420000     -32.92420000     -73.37870000
C      -45.23920000     -30.77430000     -71.68350000
H      -45.22350000     -30.19460000     -72.60080000
H      -45.67700000     -31.71190000     -72.02120000
C      -43.79770000     -31.03570000     -71.11470000
H      -43.07870000     -31.27230000     -71.95310000
H      -43.52440000     -30.10680000     -70.60460000
C      -43.22190000     -33.65930000     -73.19880000
H      -42.84440000     -32.67380000     -73.10060000
H      -42.55790000     -34.23990000     -73.81160000
C      -43.39190000     -34.25430000     -71.81120000
C      -43.12630000     -35.58260000     -71.63690000
C      -43.57510000     -33.55960000     -70.53380000
H      -42.94400000     -36.39740000     -72.34410000
C      -43.53850000     -34.49420000     -69.52860000
C      -43.81540000     -32.20010000     -70.11020000
C      -43.88820000     -32.15370000     -68.74860000
S      -43.24430000     -36.11810000     -69.94420000
S      -43.76610000     -33.70130000     -67.94520000
H      -43.90610000     -31.13360000     -68.26430000
