40
Properties=species:S:1:pos:R:3 #=T CELL(abcABC):=T 1.889726e+02=T 90.00000=T Traj:=T positionsangstrom=T Step:=T 0=T Bead:=T pbc="F F F"
C      -43.86960000     -32.91790000     -74.34250000
C      -43.20070000     -31.89770000     -73.57800000
C      -42.45120000     -32.31880000     -72.50380000
C      -42.18190000     -33.70680000     -72.27270000
C      -42.61980000     -34.62640000     -73.20450000
C      -43.52910000     -34.27640000     -74.23910000
H      -44.56110000     -32.59300000     -75.14230000
H      -41.95710000     -31.68510000     -71.83570000
H      -42.31210000     -35.62530000     -73.03330000
H      -44.01280000     -35.04290000     -74.84830000
C      -41.45520000     -34.10140000     -70.94770000
H      -41.33420000     -33.18640000     -70.35180000
H      -40.48720000     -34.56300000     -71.08720000
C      -43.48930000     -30.36220000     -73.81210000
H      -42.49880000     -29.82050000     -73.90300000
H      -44.12450000     -30.21980000     -74.71010000
S      -42.19910000     -35.49360000     -69.97910000
S      -44.34530000     -29.59230000     -72.28040000
C      -44.06270000     -35.58720000     -70.13960000
H      -44.12950000     -35.43750000     -71.21540000
H      -44.32410000     -36.59740000     -69.93970000
C      -45.99230000     -30.47060000     -72.14190000
H      -46.32700000     -30.74310000     -73.15330000
H      -46.68720000     -29.78810000     -71.73880000
C      -45.80470000     -31.70990000     -71.24710000
H      -45.00440000     -32.31200000     -71.68770000
H      -45.45380000     -31.47360000     -70.24020000
C      -44.78690000     -34.58660000     -69.20080000
H      -44.33260000     -33.66080000     -69.52020000
H      -44.47540000     -34.76580000     -68.21740000
C      -46.30580000     -34.52320000     -69.35120000
C      -47.00350000     -35.46610000     -68.65710000
C      -47.18680000     -33.84130000     -70.30780000
H      -46.64500000     -36.08090000     -67.82270000
C      -48.47320000     -34.37770000     -70.34420000
C      -47.04060000     -32.65430000     -71.14110000
C      -48.23640000     -32.31310000     -71.73140000
S      -48.71060000     -35.48950000     -69.03930000
S      -49.49310000     -33.55450000     -71.49210000
H      -48.30730000     -31.57640000     -72.55060000
