40
Properties=species:S:1:pos:R:3 #=T CELL(abcABC):=T 1.889726e+02=T 90.00000=T Traj:=T positionsangstrom=T Step:=T 0=T Bead:=T pbc="F F F"
C      -43.07200000     -33.56890000     -72.82550000
C      -43.94070000     -32.64840000     -73.46050000
C      -44.39860000     -31.61370000     -72.65260000
C      -43.95650000     -31.46650000     -71.32480000
C      -43.01470000     -32.34320000     -70.75940000
C      -42.60560000     -33.44030000     -71.49260000
H      -42.67000000     -34.41740000     -73.36460000
H      -45.01430000     -30.89130000     -73.13700000
H      -42.56460000     -32.19240000     -69.77190000
H      -42.02260000     -34.20420000     -71.00320000
C      -44.30070000     -30.26630000     -70.48970000
H      -44.30470000     -29.40780000     -71.16310000
H      -43.63910000     -30.25540000     -69.62310000
C      -44.42150000     -32.81860000     -74.84840000
H      -44.61010000     -31.75040000     -75.21100000
H      -43.59200000     -33.21010000     -75.44540000
S      -45.98330000     -30.32220000     -69.59630000
S      -45.94240000     -33.87360000     -74.98750000
C      -47.26750000     -31.11380000     -70.61400000
H      -48.11420000     -30.39680000     -70.84850000
H      -46.79680000     -31.35660000     -71.61540000
C      -47.11620000     -33.37660000     -73.60950000
H      -48.09420000     -33.04030000     -73.92870000
H      -46.60920000     -32.57180000     -72.99990000
C      -47.45380000     -34.63300000     -72.76870000
H      -48.35530000     -34.34310000     -72.17360000
H      -47.71190000     -35.49980000     -73.47420000
C      -47.77960000     -32.39780000     -69.90010000
H      -48.62630000     -32.85890000     -70.49470000
H      -48.20640000     -32.13230000     -68.90620000
C      -46.66940000     -33.42010000     -69.63650000
C      -46.09410000     -33.40390000     -68.43270000
C      -46.04550000     -34.41340000     -70.51820000
H      -46.28500000     -32.64940000     -67.61710000
C      -45.02290000     -35.07990000     -69.86280000
C      -46.37450000     -35.07950000     -71.80700000
C      -45.62220000     -36.23590000     -71.99340000
S      -44.82760000     -34.59180000     -68.24990000
S      -44.38890000     -36.47190000     -70.68520000
H      -45.50210000     -36.86910000     -72.87710000
