40
Properties=species:S:1:pos:R:3 #=T CELL(abcABC):=T 1.889726e+02=T 90.00000=T Traj:=T positionsangstrom=T Step:=T 0=T Bead:=T pbc="F F F"
C      -42.38860000     -33.16820000     -74.03720000
C      -42.86450000     -32.12960000     -73.26500000
C      -42.65570000     -32.24090000     -71.85510000
C      -42.09110000     -33.36290000     -71.23370000
C      -41.48810000     -34.36300000     -72.05630000
C      -41.66180000     -34.26710000     -73.43720000
H      -42.48560000     -33.13300000     -75.14860000
H      -43.26820000     -31.61710000     -71.31600000
H      -40.98440000     -35.25930000     -71.63360000
H      -41.37090000     -35.09480000     -74.08380000
C      -41.90380000     -33.29110000     -69.77530000
H      -42.35500000     -32.40240000     -69.32720000
H      -40.83670000     -33.19980000     -69.45680000
C      -43.55970000     -31.00700000     -73.83140000
H      -42.94770000     -30.33120000     -74.34870000
H      -44.28720000     -31.44270000     -74.51630000
S      -42.50820000     -34.70670000     -68.77060000
S      -44.44090000     -29.91650000     -72.60620000
C      -44.12410000     -35.12230000     -69.55220000
H      -43.95600000     -35.33900000     -70.60460000
H      -44.40790000     -35.98260000     -68.97050000
C      -46.02660000     -30.84010000     -72.25010000
H      -46.84310000     -30.40810000     -72.82070000
H      -46.27390000     -30.59930000     -71.23670000
C      -45.89150000     -32.35320000     -72.43240000
H      -45.75710000     -32.50940000     -73.56080000
H      -45.04330000     -32.82130000     -72.00530000
C      -45.20170000     -34.00610000     -69.41150000
H      -44.94580000     -33.21980000     -70.18120000
H      -45.14250000     -33.52490000     -68.41700000
C      -46.69870000     -34.43130000     -69.74200000
C      -47.41960000     -35.24420000     -68.88900000
C      -47.40270000     -33.95310000     -70.88270000
H      -47.13710000     -35.65690000     -67.96610000
C      -48.69190000     -34.52620000     -70.91420000
C      -47.13270000     -33.16780000     -72.07710000
C      -48.22120000     -32.92320000     -72.84970000
S      -49.06240000     -35.42610000     -69.39660000
S      -49.60900000     -33.84390000     -72.32140000
H      -48.17880000     -32.29910000     -73.72890000
