40
Properties=species:S:1:pos:R:3 #=T CELL(abcABC):=T 1.889726e+02=T 90.00000=T Traj:=T positionsangstrom=T Step:=T 0=T Bead:=T pbc="F F F"
C      -42.09330000     -33.25430000     -73.80850000
C      -42.54110000     -32.07280000     -73.06380000
C      -42.47590000     -32.12670000     -71.64790000
C      -41.85570000     -33.16900000     -70.92920000
C      -41.29500000     -34.20560000     -71.71050000
C      -41.39760000     -34.24000000     -73.12740000
H      -41.96320000     -33.16980000     -74.82920000
H      -42.95780000     -31.34210000     -70.94880000
H      -40.79570000     -35.00950000     -71.20720000
H      -41.04050000     -35.10430000     -73.72240000
C      -41.80560000     -33.09020000     -69.48230000
H      -42.27770000     -32.19130000     -69.01330000
H      -40.74190000     -33.21900000     -69.20030000
C      -43.23790000     -30.98340000     -73.84270000
H      -42.43680000     -30.24330000     -74.11810000
H      -43.69600000     -31.32140000     -74.73500000
S      -42.79060000     -34.52310000     -68.67790000
S      -44.54190000     -29.91970000     -72.98330000
C      -44.39240000     -34.55940000     -69.68500000
H      -44.13410000     -34.14180000     -70.66310000
H      -44.68010000     -35.61850000     -69.67870000
C      -45.93950000     -31.05440000     -72.46680000
H      -46.83290000     -30.78210000     -73.03890000
H      -45.98970000     -30.82050000     -71.43790000
C      -45.72050000     -32.60860000     -72.50490000
H      -45.48400000     -32.84300000     -73.54000000
H      -44.94380000     -33.01560000     -71.77810000
C      -45.53890000     -33.67740000     -69.06960000
H      -45.44870000     -32.66690000     -69.47260000
H      -45.48280000     -33.64130000     -67.99840000
C      -46.87870000     -34.37810000     -69.53490000
C      -47.81820000     -35.11240000     -68.73300000
C      -47.41760000     -34.05050000     -70.88760000
H      -47.72930000     -35.49480000     -67.70040000
C      -48.73380000     -34.50850000     -70.98770000
C      -47.08480000     -33.28950000     -72.13040000
C      -48.10560000     -33.31250000     -73.05710000
S      -49.25050000     -35.49780000     -69.65820000
S      -49.48720000     -34.26370000     -72.53050000
H      -48.28510000     -32.71250000     -73.94080000
