40
Properties=species:S:1:pos:R:3 #=T CELL(abcABC):=T 1.889726e+02=T 90.00000=T Traj:=T positionsangstrom=T Step:=T 0=T Bead:=T pbc="F F F"
C      -41.67200000     -33.12050000     -73.38870000
C      -42.42170000     -32.03830000     -72.85710000
C      -42.62610000     -31.97240000     -71.39670000
C      -42.01580000     -32.81340000     -70.55050000
C      -41.11200000     -33.79510000     -71.15290000
C      -41.00320000     -33.99910000     -72.51960000
H      -41.56310000     -33.28670000     -74.50140000
H      -43.21300000     -31.12510000     -71.04740000
H      -40.56170000     -34.37230000     -70.42910000
H      -40.53810000     -34.83410000     -72.96620000
C      -42.14330000     -32.82560000     -69.10740000
H      -42.39880000     -31.94240000     -68.60330000
H      -41.14050000     -33.03450000     -68.65070000
C      -43.08200000     -31.11540000     -73.79240000
H      -42.37450000     -30.35390000     -74.13890000
H      -43.30000000     -31.66120000     -74.74760000
S      -43.05100000     -34.28900000     -68.42210000
S      -44.62590000     -30.14950000     -73.20630000
C      -44.55220000     -34.49950000     -69.45450000
H      -44.25720000     -34.39490000     -70.55320000
H      -44.83510000     -35.62200000     -69.31420000
C      -45.93980000     -31.37040000     -73.19160000
H      -46.23960000     -31.49450000     -74.24080000
H      -46.86000000     -30.87890000     -72.78580000
C      -45.75720000     -32.63870000     -72.39840000
H      -44.91610000     -33.23740000     -72.77630000
H      -45.29820000     -32.37450000     -71.39560000
C      -45.74310000     -33.56810000     -69.09510000
H      -45.56840000     -32.59020000     -69.49590000
H      -45.95290000     -33.42060000     -68.03650000
C      -47.01110000     -34.14240000     -69.63920000
C      -47.91900000     -34.83360000     -68.89070000
C      -47.38820000     -34.14890000     -71.02240000
H      -47.88380000     -34.86160000     -67.84350000
C      -48.64790000     -34.81420000     -71.29090000
C      -46.99440000     -33.46300000     -72.25870000
C      -47.88190000     -33.66340000     -73.30190000
S      -49.27390000     -35.47590000     -69.84400000
S      -49.28660000     -34.63260000     -72.92260000
H      -47.72410000     -33.32590000     -74.36570000
