40
Properties=species:S:1:pos:R:3 #=T CELL(abcABC):=T 1.889726e+02=T 90.00000=T Traj:=T positionsangstrom=T Step:=T 0=T Bead:=T pbc="F F F"
C      -48.93330000     -32.03610000     -71.60890000
C      -47.78730000     -32.41410000     -70.95480000
C      -47.05930000     -33.57220000     -71.27260000
C      -47.40180000     -34.32750000     -72.43970000
C      -48.61410000     -33.92320000     -73.09710000
C      -49.33180000     -32.76870000     -72.70070000
H      -49.54010000     -31.17260000     -71.20470000
H      -46.23790000     -34.04400000     -70.68200000
H      -48.91810000     -34.45660000     -74.04200000
H      -50.24170000     -32.52980000     -73.26270000
C      -46.59740000     -35.51080000     -72.83380000
H      -47.26060000     -36.35960000     -73.15410000
H      -45.99890000     -35.93130000     -72.09510000
C      -47.22570000     -31.34050000     -70.00050000
H      -48.09220000     -30.96850000     -69.41700000
H      -46.54490000     -31.71300000     -69.30140000
S      -45.64270000     -35.15620000     -74.40580000
S      -46.44030000     -29.96110000     -70.93610000
C      -44.74550000     -33.58910000     -73.95590000
H      -44.64980000     -33.03520000     -74.92820000
H      -45.44550000     -32.98400000     -73.40420000
C      -45.03990000     -30.73550000     -71.84930000
H      -44.76780000     -30.02620000     -72.58520000
H      -45.49650000     -31.59770000     -72.34780000
C      -43.77120000     -31.04880000     -71.08210000
H      -42.87840000     -31.27590000     -71.63660000
H      -43.53080000     -30.15400000     -70.52680000
C      -43.45510000     -33.70980000     -73.17420000
H      -43.01670000     -32.65360000     -73.02970000
H      -42.63350000     -34.20230000     -73.73630000
C      -43.42750000     -34.36940000     -71.83170000
C      -43.14110000     -35.70310000     -71.65500000
C      -43.69410000     -33.67000000     -70.56990000
H      -42.96860000     -36.43740000     -72.44340000
C      -43.46840000     -34.54110000     -69.52750000
C      -43.83300000     -32.26620000     -70.13570000
C      -43.88740000     -32.19920000     -68.79040000
S      -43.03940000     -36.15200000     -69.94700000
S      -43.69150000     -33.75300000     -67.97300000
H      -44.00420000     -31.21720000     -68.27480000
