40
Properties=species:S:1:pos:R:3 #=T CELL(abcABC):=T 1.889726e+02=T 90.00000=T Traj:=T positionsangstrom=T Step:=T 0=T Bead:=T pbc="F F F"
C      -45.71520000     -32.90160000     -75.66990000
C      -44.72300000     -33.02600000     -74.75820000
C      -44.51870000     -34.25520000     -74.10960000
C      -45.27600000     -35.41310000     -74.50900000
C      -46.25630000     -35.25220000     -75.50290000
C      -46.47740000     -33.99460000     -76.06660000
H      -46.02500000     -31.94590000     -75.97950000
H      -43.77270000     -34.38650000     -73.31210000
H      -46.78310000     -36.06770000     -76.03530000
H      -47.22130000     -33.85120000     -76.87420000
C      -44.95830000     -36.75250000     -73.76310000
H      -44.37390000     -37.39400000     -74.51980000
H      -45.85970000     -37.27360000     -73.38370000
C      -43.93400000     -31.76600000     -74.41000000
H      -43.09640000     -31.91080000     -73.68310000
H      -43.54280000     -31.33590000     -75.29940000
S      -43.78820000     -36.63210000     -72.37950000
S      -45.14030000     -30.52480000     -73.60410000
C      -44.89310000     -35.69730000     -71.07450000
H      -45.88090000     -35.59690000     -71.58310000
H      -45.12120000     -36.49780000     -70.33570000
C      -45.83180000     -31.53870000     -72.23590000
H      -45.67710000     -32.55770000     -72.51150000
H      -46.89310000     -31.29740000     -72.08670000
C      -45.13400000     -31.10340000     -70.91790000
H      -44.13930000     -31.58420000     -71.00320000
H      -45.06700000     -30.06790000     -70.69640000
C      -44.14360000     -34.58800000     -70.40580000
H      -44.02000000     -33.77500000     -71.15410000
H      -43.22340000     -35.11310000     -69.94160000
C      -44.86750000     -34.08550000     -69.14320000
C      -44.84220000     -34.88980000     -68.04610000
C      -45.55780000     -32.82520000     -68.94480000
H      -44.57370000     -35.95330000     -67.95670000
C      -46.03260000     -32.72200000     -67.62130000
C      -45.74290000     -31.53710000     -69.64150000
C      -46.38830000     -30.59530000     -68.85060000
S      -45.79350000     -34.22550000     -66.69980000
S      -46.70530000     -31.20120000     -67.21430000
H      -46.75050000     -29.55650000     -69.13560000
