40
Properties=species:S:1:pos:R:3 #=T CELL(abcABC):=T 1.889726e+02=T 90.00000=T Traj:=T positionsangstrom=T Step:=T 0=T Bead:=T pbc="F F F"
C      -41.24410000     -32.85930000     -72.81890000
C      -42.18140000     -31.84120000     -72.55160000
C      -42.66070000     -31.68610000     -71.19620000
C      -42.15630000     -32.53220000     -70.19740000
C      -41.18560000     -33.46570000     -70.52370000
C      -40.76740000     -33.78660000     -71.84770000
H      -40.93440000     -33.03460000     -73.83430000
H      -43.33270000     -30.90340000     -70.89370000
H      -40.77480000     -34.01840000     -69.73440000
H      -40.05000000     -34.56770000     -72.01540000
C      -42.74030000     -32.51900000     -68.82690000
H      -43.56910000     -31.76830000     -68.75780000
H      -41.97940000     -32.24870000     -68.18060000
C      -42.70510000     -30.93220000     -73.64150000
H      -42.23440000     -29.89690000     -73.57930000
H      -42.47450000     -31.23680000     -74.68790000
S      -43.31670000     -34.24340000     -68.26710000
S      -44.44180000     -30.50560000     -73.50550000
C      -44.71790000     -34.71040000     -69.38520000
H      -44.37100000     -34.69700000     -70.43430000
H      -44.94630000     -35.70440000     -69.04820000
C      -45.50610000     -31.97470000     -73.74150000
H      -45.25620000     -32.61240000     -74.57660000
H      -46.44340000     -31.61730000     -74.09420000
C      -45.60020000     -32.83170000     -72.48610000
H      -44.72220000     -33.56730000     -72.53520000
H      -45.49850000     -32.25490000     -71.56510000
C      -45.93530000     -33.73900000     -69.18700000
H      -45.68940000     -32.73560000     -69.60730000
H      -46.09520000     -33.57530000     -68.10850000
C      -47.19520000     -34.29750000     -69.78160000
C      -48.13340000     -34.93740000     -69.06310000
C      -47.45170000     -34.27150000     -71.21970000
H      -48.11670000     -35.20920000     -68.07110000
C      -48.70210000     -34.84520000     -71.50510000
C      -46.88310000     -33.61560000     -72.39820000
C      -47.68130000     -33.70440000     -73.52530000
S      -49.49620000     -35.38670000     -70.08930000
S      -49.17570000     -34.50890000     -73.11390000
H      -47.51630000     -33.30430000     -74.51820000
