40
Properties=species:S:1:pos:R:3 #=T CELL(abcABC):=T 1.889726e+02=T 90.00000=T Traj:=T positionsangstrom=T Step:=T 0=T Bead:=T pbc="F F F"
C      -48.93620000     -31.98170000     -71.60760000
C      -47.68800000     -32.27520000     -71.02270000
C      -46.99980000     -33.42080000     -71.34160000
C      -47.50460000     -34.29280000     -72.36890000
C      -48.66920000     -33.89410000     -73.05480000
C      -49.40620000     -32.78440000     -72.59530000
H      -49.52200000     -31.08410000     -71.38930000
H      -45.97160000     -33.63640000     -70.94640000
H      -48.94910000     -34.57560000     -73.87870000
H      -50.37960000     -32.59770000     -73.09530000
C      -46.76380000     -35.54260000     -72.72340000
H      -47.41680000     -36.42620000     -72.78070000
H      -46.07990000     -35.70290000     -71.82560000
C      -47.08240000     -31.35990000     -70.07470000
H      -47.85670000     -30.98930000     -69.34860000
H      -46.27820000     -31.86240000     -69.52460000
S      -45.78690000     -35.37450000     -74.23630000
S      -46.48390000     -29.84930000     -70.95970000
C      -44.85810000     -33.71180000     -73.99150000
H      -44.63050000     -33.29770000     -74.95630000
H      -45.58950000     -33.04930000     -73.43400000
C      -44.98200000     -30.61870000     -71.86850000
H      -44.76870000     -29.96170000     -72.72030000
H      -45.51840000     -31.48760000     -72.28460000
C      -43.78350000     -30.94770000     -70.95150000
H      -42.92230000     -30.93500000     -71.63310000
H      -43.60920000     -30.03420000     -70.33630000
C      -43.42900000     -33.84990000     -73.31920000
H      -42.93460000     -32.96040000     -73.61670000
H      -43.00360000     -34.59590000     -73.92440000
C      -43.30670000     -34.34380000     -71.88500000
C      -43.13360000     -35.70090000     -71.69080000
C      -43.54740000     -33.63230000     -70.63220000
H      -42.83190000     -36.33040000     -72.47460000
C      -43.34730000     -34.51530000     -69.56060000
C      -43.75120000     -32.26600000     -70.12380000
C      -43.88730000     -32.19110000     -68.75390000
S      -43.06050000     -36.17980000     -70.05080000
S      -43.60550000     -33.76360000     -67.97550000
H      -44.07390000     -31.34760000     -68.13950000
