40
Properties=species:S:1:pos:R:3 #=T CELL(abcABC):=T 1.889726e+02=T 90.00000=T Traj:=T positionsangstrom=T Step:=T 0=T Bead:=T pbc="F F F"
C      -41.15080000     -32.66400000     -72.90510000
C      -42.24660000     -31.87160000     -72.56950000
C      -42.68650000     -31.84400000     -71.23300000
C      -42.20560000     -32.74210000     -70.32330000
C      -41.23520000     -33.67270000     -70.69540000
C      -40.72050000     -33.61140000     -71.96710000
H      -40.72700000     -32.50880000     -73.92560000
H      -43.54020000     -31.27160000     -70.96460000
H      -40.87520000     -34.46000000     -70.03280000
H      -40.05130000     -34.39570000     -72.21830000
C      -42.65610000     -32.66730000     -68.88190000
H      -43.53490000     -32.00080000     -68.88320000
H      -41.82160000     -32.23270000     -68.26340000
C      -42.74280000     -30.85350000     -73.60320000
H      -42.07990000     -30.03900000     -73.39950000
H      -42.53880000     -31.28390000     -74.54270000
S      -43.20930000     -34.23650000     -68.08890000
S      -44.54600000     -30.31480000     -73.58020000
C      -44.59240000     -34.55810000     -69.36920000
H      -44.13740000     -34.37210000     -70.34420000
H      -44.93660000     -35.61650000     -69.28450000
C      -45.45650000     -31.93790000     -73.74380000
H      -44.92770000     -32.52400000     -74.53830000
H      -46.47840000     -31.60040000     -74.10040000
C      -45.63120000     -32.90130000     -72.54780000
H      -44.79020000     -33.60080000     -72.60620000
H      -45.46520000     -32.33120000     -71.60360000
C      -45.85540000     -33.75680000     -69.14890000
H      -45.71750000     -32.71500000     -69.32930000
H      -46.04660000     -33.78170000     -68.09140000
C      -47.08920000     -34.23660000     -69.82570000
C      -48.00090000     -34.99670000     -69.11970000
C      -47.54030000     -34.06750000     -71.18890000
H      -48.06100000     -35.13570000     -68.04050000
C      -48.76590000     -34.64890000     -71.39940000
C      -46.96530000     -33.59500000     -72.45950000
C      -47.75260000     -33.96040000     -73.56400000
S      -49.47590000     -35.39660000     -69.96380000
S      -49.28060000     -34.66270000     -73.08460000
H      -47.51980000     -33.73740000     -74.56360000
