40
Properties=species:S:1:pos:R:3 #=T CELL(abcABC):=T 1.889726e+02=T 90.00000=T Traj:=T positionsangstrom=T Step:=T 0=T Bead:=T pbc="F F F"
C      -48.95190000     -31.92420000     -71.79660000
C      -47.78750000     -32.15850000     -71.11580000
C      -47.08800000     -33.36780000     -71.34780000
C      -47.62370000     -34.33630000     -72.23860000
C      -48.92400000     -34.14330000     -72.74180000
C      -49.58420000     -32.90960000     -72.52220000
H      -49.45750000     -31.01580000     -71.71000000
H      -46.18780000     -33.66880000     -70.77350000
H      -49.45920000     -34.99730000     -73.20890000
H      -50.58280000     -32.73100000     -72.95760000
C      -46.91300000     -35.66600000     -72.58750000
H      -47.53110000     -36.41030000     -72.90570000
H      -46.30000000     -35.98970000     -71.68520000
C      -47.22630000     -31.20220000     -70.10120000
H      -48.04810000     -30.68560000     -69.67090000
H      -46.53220000     -31.68290000     -69.35360000
S      -45.65510000     -35.57270000     -74.01250000
S      -46.25090000     -29.81900000     -70.88020000
C      -44.96100000     -33.86570000     -73.97230000
H      -44.92980000     -33.33380000     -74.91070000
H      -45.68830000     -33.29990000     -73.39020000
C      -44.91920000     -30.64480000     -71.89240000
H      -44.60290000     -30.17150000     -72.86770000
H      -45.19210000     -31.60330000     -72.22590000
C      -43.64650000     -30.92320000     -71.12630000
H      -42.82210000     -31.00190000     -71.85120000
H      -43.41170000     -30.12120000     -70.42490000
C      -43.57120000     -33.64540000     -73.36220000
H      -43.35600000     -32.59330000     -73.28020000
H      -42.86680000     -34.21050000     -74.05110000
C      -43.45050000     -34.31030000     -71.98550000
C      -43.25800000     -35.64790000     -71.76580000
C      -43.51490000     -33.60340000     -70.70840000
H      -43.12370000     -36.31480000     -72.57250000
C      -43.50890000     -34.48660000     -69.60710000
C      -43.62160000     -32.23250000     -70.26670000
C      -43.62160000     -32.11750000     -68.90080000
S      -43.15550000     -36.14510000     -70.07380000
S      -43.41870000     -33.67810000     -68.08260000
H      -43.71000000     -31.23950000     -68.33610000
