40
Properties=species:S:1:pos:R:3 #=T CELL(abcABC):=T 1.889726e+02=T 90.00000=T Traj:=T positionsangstrom=T Step:=T 0=T Bead:=T pbc="F F F"
C      -45.11480000     -32.53400000     -67.55320000
C      -44.11910000     -31.94910000     -68.36700000
C      -44.47690000     -31.10060000     -69.41940000
C      -45.80120000     -30.71480000     -69.63990000
C      -46.77660000     -31.16330000     -68.72630000
C      -46.43500000     -32.07320000     -67.72260000
H      -44.85250000     -33.22730000     -66.75540000
H      -43.62050000     -30.60920000     -69.87690000
H      -47.75580000     -30.73090000     -68.84210000
H      -47.19990000     -32.47510000     -67.02760000
C      -46.08700000     -29.65020000     -70.56910000
H      -45.34150000     -29.39770000     -71.29130000
H      -46.24300000     -28.70520000     -70.06210000
C      -42.64880000     -32.37220000     -68.17350000
H      -42.03740000     -31.48560000     -68.02130000
H      -42.51760000     -33.12740000     -67.41140000
S      -47.56040000     -30.00430000     -71.62290000
S      -41.84490000     -32.83430000     -69.74840000
C      -46.98950000     -31.53220000     -72.53750000
H      -47.84400000     -31.82060000     -73.10590000
H      -46.14310000     -31.35300000     -73.17370000
C      -42.91880000     -34.30650000     -70.42080000
H      -43.75770000     -34.40800000     -69.68090000
H      -42.41460000     -35.22130000     -70.43240000
C      -43.37130000     -33.90990000     -71.89940000
H      -44.00650000     -33.07420000     -71.82580000
H      -42.48720000     -33.76970000     -72.50570000
C      -46.54440000     -32.67860000     -71.67590000
H      -47.25680000     -32.83840000     -70.86460000
H      -45.50780000     -32.59730000     -71.34570000
C      -46.56060000     -34.04810000     -72.50820000
C      -47.80410000     -34.66840000     -72.82880000
C      -45.49760000     -35.08400000     -72.76210000
H      -48.81150000     -34.26930000     -72.79650000
C      -45.96070000     -36.14690000     -73.51490000
C      -44.07690000     -35.00970000     -72.62070000
C      -43.44110000     -36.04790000     -73.30440000
S      -47.67810000     -36.17230000     -73.78810000
S      -44.65370000     -37.20900000     -73.93610000
H      -42.33410000     -36.15130000     -73.18450000
