40
Properties=species:S:1:pos:R:3 #=T CELL(abcABC):=T 1.889726e+02=T 90.00000=T Traj:=T positionsangstrom=T Step:=T 0=T Bead:=T pbc="F F F"
C      -41.34150000     -33.01070000     -72.27360000
C      -42.16400000     -31.90480000     -72.10290000
C      -42.68660000     -31.69460000     -70.80470000
C      -42.49660000     -32.60780000     -69.76160000
C      -41.65630000     -33.72050000     -69.96460000
C      -41.03000000     -33.83610000     -71.20780000
H      -40.89690000     -33.24040000     -73.20240000
H      -43.27090000     -30.79180000     -70.74710000
H      -41.50180000     -34.31330000     -69.07380000
H      -40.39860000     -34.71410000     -71.36470000
C      -43.19570000     -32.31740000     -68.39340000
H      -44.00300000     -31.59980000     -68.46980000
H      -42.48030000     -32.08320000     -67.57060000
C      -42.42490000     -30.91170000     -73.22800000
H      -41.81370000     -30.00930000     -73.10040000
H      -41.99780000     -31.36200000     -74.13490000
S      -43.86630000     -33.87550000     -67.71890000
S      -44.14680000     -30.39100000     -73.42140000
C      -44.98710000     -34.35710000     -69.11890000
H      -44.41660000     -34.12140000     -70.01050000
H      -45.13210000     -35.43660000     -69.03880000
C      -44.98810000     -31.99160000     -73.64330000
H      -44.14390000     -32.68590000     -74.04420000
H      -45.78880000     -32.03960000     -74.41420000
C      -45.59020000     -32.49300000     -72.29030000
H      -44.79930000     -32.99040000     -71.69410000
H      -45.88210000     -31.63730000     -71.66240000
C      -46.39750000     -33.57790000     -69.15550000
H      -46.13380000     -32.52580000     -69.49670000
H      -46.71480000     -33.65720000     -68.05760000
C      -47.37110000     -34.27570000     -70.10530000
C      -48.33890000     -35.15610000     -69.65640000
C      -47.39010000     -34.20640000     -71.53060000
H      -48.50560000     -35.38800000     -68.59740000
C      -48.39320000     -35.00280000     -72.12040000
C      -46.73860000     -33.43130000     -72.56810000
C      -47.24790000     -33.68270000     -73.82070000
S      -49.39530000     -35.75640000     -70.91830000
S      -48.62200000     -34.79800000     -73.87320000
H      -47.04300000     -33.17470000     -74.77440000
