40
Properties=species:S:1:pos:R:3 #=T CELL(abcABC):=T 1.889726e+02=T 90.00000=T Traj:=T positionsangstrom=T Step:=T 0=T Bead:=T pbc="F F F"
C      -43.94220000     -34.51180000     -75.46090000
C      -43.44260000     -34.31720000     -74.15210000
C      -43.96490000     -35.17200000     -73.18310000
C      -44.73930000     -36.29820000     -73.45600000
C      -45.17130000     -36.48480000     -74.77420000
C      -44.79880000     -35.53380000     -75.78400000
H      -43.65860000     -33.82060000     -76.25970000
H      -43.66410000     -34.90350000     -72.16650000
H      -45.83290000     -37.29530000     -75.02370000
H      -45.27880000     -35.55280000     -76.79860000
C      -45.20160000     -37.28530000     -72.34320000
H      -44.92590000     -38.32240000     -72.59540000
H      -46.23840000     -37.16190000     -72.28240000
C      -42.43880000     -33.26170000     -73.92980000
H      -42.00140000     -33.32940000     -72.88400000
H      -41.65190000     -33.20550000     -74.65830000
S      -44.49490000     -37.05400000     -70.60780000
S      -43.33530000     -31.53380000     -73.94230000
C      -45.67220000     -35.90310000     -69.66790000
H      -46.69680000     -36.18990000     -69.88950000
H      -45.46400000     -36.27310000     -68.62640000
C      -44.67190000     -31.82940000     -72.71380000
H      -45.09610000     -32.82650000     -72.99670000
H      -45.50530000     -31.13730000     -73.02850000
C      -44.19680000     -31.51640000     -71.25060000
H      -43.54180000     -32.19730000     -70.77260000
H      -43.65250000     -30.52250000     -71.30990000
C      -45.35970000     -34.42700000     -69.81280000
H      -45.31120000     -34.23430000     -70.82300000
H      -44.36970000     -34.34070000     -69.34090000
C      -46.32250000     -33.41790000     -69.25720000
C      -47.24620000     -33.71210000     -68.25780000
C      -46.25520000     -31.99580000     -69.56100000
H      -47.42200000     -34.73860000     -67.82870000
C      -47.14680000     -31.28800000     -68.75360000
C      -45.36240000     -31.13140000     -70.24560000
C      -45.68330000     -29.83210000     -70.10340000
S      -48.09410000     -32.30360000     -67.62530000
S      -47.08550000     -29.54930000     -69.07560000
H      -45.17160000     -29.00840000     -70.47250000
