40
Properties=species:S:1:pos:R:3 #=T CELL(abcABC):=T 1.889726e+02=T 90.00000=T Traj:=T positionsangstrom=T Step:=T 0=T Bead:=T pbc="F F F"
C      -41.86660000     -33.14410000     -71.13040000
C      -42.27130000     -31.84000000     -70.86580000
C      -42.94740000     -31.56830000     -69.68370000
C      -43.26980000     -32.58940000     -68.81210000
C      -42.79050000     -33.88880000     -69.04960000
C      -42.14720000     -34.17920000     -70.18930000
H      -41.30530000     -33.41740000     -71.95560000
H      -43.34450000     -30.54470000     -69.44720000
H      -43.00340000     -34.62260000     -68.26040000
H      -41.88960000     -35.21690000     -70.31470000
C      -44.00770000     -32.46330000     -67.53800000
H      -43.69910000     -31.49950000     -67.09110000
H      -43.79080000     -33.26600000     -66.79250000
C      -41.97120000     -30.75070000     -71.88460000
H      -41.59570000     -29.83610000     -71.41640000
H      -41.21070000     -31.08690000     -72.62100000
S      -45.83730000     -32.36420000     -67.84310000
S      -43.63770000     -30.16050000     -72.68750000
C      -46.17330000     -33.89980000     -68.81590000
H      -45.29840000     -34.44260000     -69.18660000
H      -46.61110000     -34.71980000     -68.16780000
C      -44.37230000     -31.68580000     -73.48180000
H      -43.43350000     -32.25160000     -73.80040000
H      -44.91250000     -31.44190000     -74.42440000
C      -45.25590000     -32.47280000     -72.48680000
H      -44.77290000     -32.90420000     -71.62280000
H      -45.95010000     -31.75940000     -72.00300000
C      -47.17850000     -33.41700000     -69.90930000
H      -46.77030000     -32.53540000     -70.38590000
H      -48.05500000     -33.04670000     -69.32540000
C      -47.44990000     -34.50130000     -70.92080000
C      -48.32870000     -35.55280000     -70.70030000
C      -46.96890000     -34.46910000     -72.30430000
H      -48.96440000     -35.76530000     -69.87310000
C      -47.56770000     -35.41210000     -73.10770000
C      -46.10880000     -33.60040000     -73.08210000
C      -45.97070000     -33.92130000     -74.38790000
S      -48.60580000     -36.47210000     -72.17090000
S      -46.95950000     -35.38420000     -74.73930000
H      -45.50540000     -33.37250000     -75.22560000
