40
Properties=species:S:1:pos:R:3 #=T CELL(abcABC):=T 1.889726e+02=T 90.00000=T Traj:=T positionsangstrom=T Step:=T 0=T Bead:=T pbc="F F F"
C      -41.61270000     -33.04990000     -71.16590000
C      -42.18180000     -31.79260000     -71.10110000
C      -42.93200000     -31.49000000     -69.92990000
C      -43.14100000     -32.39670000     -68.88140000
C      -42.56830000     -33.70000000     -69.04360000
C      -41.79740000     -34.04770000     -70.19920000
H      -41.14570000     -33.31900000     -72.13580000
H      -43.51540000     -30.55370000     -69.99070000
H      -42.78990000     -34.50620000     -68.30990000
H      -41.46030000     -35.08830000     -70.35680000
C      -43.87910000     -32.01090000     -67.66620000
H      -44.06730000     -30.93990000     -67.75330000
H      -43.32890000     -32.47090000     -66.83360000
C      -42.04830000     -30.84100000     -72.26190000
H      -41.40270000     -30.00010000     -71.94910000
H      -41.47020000     -31.34170000     -73.07430000
S      -45.60850000     -32.59650000     -67.62520000
S      -43.75050000     -30.27710000     -72.83940000
C      -45.86970000     -33.91060000     -68.87700000
H      -44.91470000     -34.11120000     -69.47030000
H      -46.13360000     -34.87760000     -68.42730000
C      -44.42490000     -31.86420000     -73.50660000
H      -43.66100000     -32.46450000     -74.06570000
H      -45.21420000     -31.47180000     -74.12260000
C      -45.06870000     -32.76630000     -72.42640000
H      -44.22520000     -33.36850000     -72.04790000
H      -45.44620000     -32.17010000     -71.56190000
C      -47.01050000     -33.54550000     -69.72750000
H      -46.79010000     -32.57240000     -70.13470000
H      -47.85000000     -33.36360000     -69.05970000
C      -47.34930000     -34.60390000     -70.83250000
C      -48.29680000     -35.61190000     -70.57280000
C      -47.02930000     -34.45460000     -72.18760000
H      -48.78650000     -35.92250000     -69.64910000
C      -47.72820000     -35.38440000     -72.97730000
C      -46.12110000     -33.68040000     -72.99200000
C      -46.20550000     -33.95550000     -74.32260000
S      -48.79840000     -36.44750000     -72.09850000
S      -47.47030000     -35.14440000     -74.69010000
H      -45.68340000     -33.48080000     -75.11170000
