40
Properties=species:S:1:pos:R:3 #=T CELL(abcABC):=T 1.889726e+02=T 90.00000=T Traj:=T positionsangstrom=T Step:=T 0=T Bead:=T pbc="F F F"
C      -45.27360000     -33.88210000     -74.76210000
C      -43.94050000     -33.94690000     -74.30540000
C      -43.46370000     -35.06170000     -73.64320000
C      -44.26530000     -36.21830000     -73.48920000
C      -45.54100000     -36.12690000     -73.99620000
C      -46.07780000     -35.00560000     -74.68020000
H      -45.67930000     -32.97440000     -75.20980000
H      -42.51160000     -35.15570000     -73.18990000
H      -46.18640000     -36.96310000     -73.89390000
H      -47.12800000     -34.87660000     -74.89900000
C      -43.83390000     -37.39670000     -72.64200000
H      -42.80930000     -37.78700000     -72.91240000
H      -44.57040000     -38.15120000     -72.64790000
C      -43.00690000     -32.69210000     -74.35450000
H      -42.10160000     -32.66800000     -73.74350000
H      -42.55010000     -32.43010000     -75.29800000
S      -43.49670000     -36.73410000     -70.95450000
S      -43.87630000     -31.16120000     -73.90890000
C      -45.02080000     -35.98680000     -70.28020000
H      -45.85720000     -36.46880000     -70.76750000
H      -45.06610000     -36.26600000     -69.23490000
C      -44.99610000     -31.32120000     -72.44820000
H      -45.62230000     -32.23810000     -72.40650000
H      -45.72870000     -30.54390000     -72.63560000
C      -44.28340000     -31.19660000     -71.07060000
H      -43.61050000     -32.00480000     -70.86240000
H      -43.65540000     -30.30950000     -70.93200000
C      -45.04840000     -34.46570000     -70.51380000
H      -45.25780000     -34.24170000     -71.62330000
H      -44.05290000     -34.03080000     -70.42600000
C      -46.05080000     -33.71660000     -69.68300000
C      -47.16270000     -34.27100000     -69.09320000
C      -46.17780000     -32.25300000     -69.54130000
H      -47.44840000     -35.38650000     -69.16670000
C      -47.13870000     -31.83320000     -68.61340000
C      -45.36770000     -31.05990000     -70.00930000
C      -45.90040000     -29.91720000     -69.54370000
S      -48.12270000     -33.14610000     -68.03690000
S      -47.17240000     -30.10130000     -68.30940000
H      -45.40010000     -28.89470000     -69.67140000
