40
Properties=species:S:1:pos:R:3 #=T CELL(abcABC):=T 1.889726e+02=T 90.00000=T Traj:=T positionsangstrom=T Step:=T 0=T Bead:=T pbc="F F F"
C      -43.83410000     -34.69890000     -75.52490000
C      -43.39440000     -34.37190000     -74.21550000
C      -43.93460000     -35.15780000     -73.18790000
C      -44.80220000     -36.22360000     -73.38720000
C      -45.18750000     -36.54180000     -74.73180000
C      -44.74360000     -35.74480000     -75.70880000
H      -43.48410000     -34.08270000     -76.38200000
H      -43.52630000     -34.96900000     -72.18250000
H      -45.84060000     -37.35490000     -74.96490000
H      -44.97200000     -35.99260000     -76.76410000
C      -45.52360000     -36.90710000     -72.24460000
H      -45.79140000     -37.88850000     -72.61890000
H      -46.51480000     -36.33190000     -71.97810000
C      -42.49790000     -33.22430000     -73.88190000
H      -42.06400000     -33.35920000     -72.90630000
H      -41.73180000     -33.12160000     -74.70230000
S      -44.66460000     -37.08900000     -70.65470000
S      -43.33080000     -31.56210000     -73.95980000
C      -45.72720000     -35.93680000     -69.64710000
H      -46.77110000     -36.02460000     -69.88470000
H      -45.58180000     -36.15200000     -68.58060000
C      -44.68680000     -31.59230000     -72.68350000
H      -45.12770000     -32.56320000     -72.73960000
H      -45.41620000     -30.80200000     -72.83380000
C      -44.15520000     -31.56020000     -71.21650000
H      -43.72440000     -32.51360000     -71.06880000
H      -43.27040000     -30.90310000     -71.20940000
C      -45.32720000     -34.51600000     -69.84400000
H      -45.27590000     -34.30930000     -70.92120000
H      -44.27830000     -34.30410000     -69.61950000
C      -46.20270000     -33.43540000     -69.27220000
C      -47.22470000     -33.75590000     -68.31590000
C      -46.07770000     -31.97250000     -69.46860000
H      -47.35590000     -34.72230000     -67.89980000
C      -47.01290000     -31.27780000     -68.65760000
C      -45.24530000     -31.06150000     -70.28640000
C      -45.70340000     -29.79560000     -70.15380000
S      -48.12980000     -32.28990000     -67.80700000
S      -46.99490000     -29.57720000     -68.93170000
H      -45.23950000     -28.91570000     -70.57040000
