40
Properties=species:S:1:pos:R:3 #=T CELL(abcABC):=T 1.889726e+02=T 90.00000=T Traj:=T positionsangstrom=T Step:=T 0=T Bead:=T pbc="F F F"
C      -41.71160000     -33.04540000     -71.19680000
C      -42.18510000     -31.77000000     -70.98090000
C      -42.92220000     -31.52550000     -69.87530000
C      -43.19670000     -32.51900000     -68.89610000
C      -42.61610000     -33.75940000     -69.04760000
C      -41.92150000     -34.07410000     -70.28670000
H      -41.19990000     -33.23430000     -72.19360000
H      -43.33280000     -30.48530000     -69.58580000
H      -42.64930000     -34.56630000     -68.26790000
H      -41.43340000     -34.99160000     -70.43400000
C      -43.95320000     -31.99450000     -67.68340000
H      -43.77110000     -30.91220000     -67.52780000
H      -43.47620000     -32.38010000     -66.80760000
C      -42.06730000     -30.76700000     -72.12520000
H      -41.58750000     -29.80930000     -71.90770000
H      -41.64570000     -31.26030000     -72.97980000
S      -45.77520000     -32.39520000     -67.56730000
S      -43.64360000     -30.24000000     -72.72610000
C      -46.08000000     -33.86520000     -68.67430000
H      -45.11910000     -33.96630000     -69.15610000
H      -46.33910000     -34.65790000     -68.00260000
C      -44.35920000     -31.80720000     -73.44230000
H      -43.56620000     -32.33950000     -73.90190000
H      -45.00640000     -31.55560000     -74.24860000
C      -45.11010000     -32.72570000     -72.45060000
H      -44.32830000     -33.30820000     -71.87040000
H      -45.65990000     -32.16730000     -71.72170000
C      -47.14380000     -33.61600000     -69.70940000
H      -47.00290000     -32.64070000     -70.30500000
H      -48.08780000     -33.55220000     -69.25690000
C      -47.33790000     -34.62970000     -70.85370000
C      -48.27000000     -35.64770000     -70.69250000
C      -46.89710000     -34.60630000     -72.25310000
H      -48.82870000     -35.76480000     -69.79270000
C      -47.69560000     -35.44430000     -73.07490000
C      -46.06050000     -33.72590000     -73.08570000
C      -46.13590000     -34.02980000     -74.38640000
S      -48.73010000     -36.50500000     -72.18040000
S      -47.31070000     -35.18320000     -74.79400000
H      -45.44600000     -33.62650000     -75.11510000
