40
Properties=species:S:1:pos:R:3 #=T CELL(abcABC):=T 1.889726e+02=T 90.00000=T Traj:=T positionsangstrom=T Step:=T 0=T Bead:=T pbc="F F F"
C      -42.09770000     -33.24610000     -71.05730000
C      -42.57830000     -32.00450000     -70.64140000
C      -43.24200000     -32.02060000     -69.40820000
C      -43.38160000     -33.12320000     -68.62080000
C      -42.85860000     -34.33290000     -69.06250000
C      -42.20740000     -34.36370000     -70.29180000
H      -41.49200000     -33.34730000     -72.00950000
H      -43.68630000     -31.17280000     -69.04540000
H      -42.90800000     -35.23330000     -68.47310000
H      -41.66250000     -35.27730000     -70.57630000
C      -44.24030000     -33.00840000     -67.38370000
H      -43.74710000     -32.51670000     -66.54290000
H      -44.48680000     -33.99150000     -66.97950000
C      -42.19580000     -30.75490000     -71.36890000
H      -41.96240000     -29.90780000     -70.69280000
H      -41.41190000     -30.97460000     -72.04560000
S      -45.84680000     -32.21570000     -67.91950000
S      -43.47790000     -30.21430000     -72.51560000
C      -46.21640000     -33.35990000     -69.28970000
H      -45.40110000     -33.46420000     -70.06670000
H      -46.28610000     -34.37680000     -68.84040000
C      -44.24890000     -31.72430000     -73.33840000
H      -43.63480000     -32.59200000     -73.04540000
H      -44.06850000     -31.63060000     -74.47060000
C      -45.64310000     -32.00760000     -72.79200000
H      -45.63500000     -32.02420000     -71.70490000
H      -46.37540000     -31.23770000     -73.09020000
C      -47.53490000     -33.08380000     -70.09810000
H      -47.54030000     -32.08500000     -70.56160000
H      -48.36520000     -33.03070000     -69.38300000
C      -47.72560000     -34.11020000     -71.15360000
C      -48.46540000     -35.29970000     -70.87870000
C      -46.97780000     -34.22650000     -72.43810000
H      -48.93970000     -35.49080000     -69.92090000
C      -47.26110000     -35.40920000     -73.09220000
C      -46.14090000     -33.33470000     -73.26330000
C      -45.81120000     -33.93280000     -74.45200000
S      -48.35280000     -36.40150000     -72.23790000
S      -46.46690000     -35.54480000     -74.63900000
H      -45.02860000     -33.68100000     -75.22200000
