40
Properties=species:S:1:pos:R:3 #=T CELL(abcABC):=T 1.889726e+02=T 90.00000=T Traj:=T positionsangstrom=T Step:=T 0=T Bead:=T pbc="F F F"
C      -49.06690000     -32.08000000     -71.67390000
C      -47.77740000     -32.21090000     -71.11540000
C      -47.11430000     -33.40600000     -71.38810000
C      -47.70560000     -34.45310000     -72.15040000
C      -48.91890000     -34.21650000     -72.82470000
C      -49.59870000     -32.99570000     -72.55770000
H      -49.71620000     -31.26890000     -71.43770000
H      -46.14860000     -33.59850000     -70.94200000
H      -49.27370000     -34.87770000     -73.59260000
H      -50.57070000     -32.91330000     -73.04990000
C      -46.87450000     -35.67570000     -72.27630000
H      -47.49580000     -36.58800000     -72.42550000
H      -46.23890000     -35.91050000     -71.39260000
C      -47.15410000     -31.15420000     -70.17860000
H      -47.93460000     -30.61540000     -69.69390000
H      -46.71890000     -31.70370000     -69.30350000
S      -45.83590000     -35.54200000     -73.83440000
S      -46.00360000     -29.87720000     -70.84560000
C      -45.14840000     -33.84610000     -73.89780000
H      -45.44020000     -33.51230000     -74.91840000
H      -45.84660000     -33.44320000     -73.16930000
C      -44.82410000     -30.75710000     -71.90690000
H      -44.78260000     -29.91380000     -72.62110000
H      -45.25380000     -31.61600000     -72.36700000
C      -43.42220000     -30.99530000     -71.32430000
H      -42.81540000     -31.12170000     -72.22870000
H      -43.10160000     -30.15680000     -70.73830000
C      -43.73250000     -33.64490000     -73.45680000
H      -43.42620000     -32.62460000     -73.44350000
H      -43.09070000     -34.18640000     -74.16770000
C      -43.49620000     -34.22350000     -72.06030000
C      -43.45900000     -35.57990000     -71.80990000
C      -43.37280000     -33.54690000     -70.79410000
H      -43.70650000     -36.29280000     -72.58310000
C      -43.39300000     -34.39720000     -69.66440000
C      -43.39660000     -32.18510000     -70.36280000
C      -43.42160000     -32.06180000     -68.99550000
S      -43.35150000     -36.11740000     -70.14080000
S      -43.36360000     -33.57380000     -68.06870000
H      -43.39220000     -31.13740000     -68.42840000
