40
Properties=species:S:1:pos:R:3 #=T CELL(abcABC):=T 1.889726e+02=T 90.00000=T Traj:=T positionsangstrom=T Step:=T 0=T Bead:=T pbc="F F F"
C      -42.11890000     -33.27080000     -69.26190000
C      -42.64630000     -32.01890000     -69.41540000
C      -43.81860000     -31.73980000     -68.73740000
C      -44.46300000     -32.72910000     -68.03100000
C      -43.98730000     -34.04650000     -67.96050000
C      -42.76720000     -34.26010000     -68.56460000
H      -41.20630000     -33.55440000     -69.84090000
H      -44.21700000     -30.73700000     -68.68120000
H      -44.57550000     -34.87100000     -67.59500000
H      -42.34700000     -35.27510000     -68.68970000
C      -45.69790000     -32.39150000     -67.21380000
H      -45.73460000     -31.27850000     -67.17590000
H      -45.75640000     -32.65910000     -66.13750000
C      -41.88930000     -31.11780000     -70.36890000
H      -41.39890000     -30.26710000     -69.79790000
H      -40.99320000     -31.67180000     -70.74380000
S      -47.24390000     -32.90560000     -68.05170000
S      -42.87920000     -30.29870000     -71.73540000
C      -46.72410000     -33.81130000     -69.64350000
H      -45.72900000     -33.35670000     -69.90810000
H      -46.62950000     -34.79680000     -69.35910000
C      -43.69410000     -31.46520000     -72.90400000
H      -42.87560000     -32.19590000     -73.12300000
H      -43.91400000     -30.89700000     -73.77910000
C      -44.94650000     -32.20950000     -72.42560000
H      -44.66480000     -32.61990000     -71.47520000
H      -45.75410000     -31.41750000     -72.11880000
C      -47.79090000     -33.60790000     -70.70880000
H      -47.89670000     -32.57410000     -71.01630000
H      -48.78310000     -33.86460000     -70.29780000
C      -47.55410000     -34.48490000     -71.99490000
C      -48.40620000     -35.46180000     -72.31630000
C      -46.52760000     -34.27760000     -73.04570000
H      -49.25890000     -35.80480000     -71.75350000
C      -46.68330000     -35.18090000     -74.08030000
C      -45.43060000     -33.34610000     -73.37370000
C      -44.81210000     -33.61230000     -74.57640000
S      -47.94450000     -36.29790000     -73.81780000
S      -45.55180000     -35.02900000     -75.39810000
H      -44.12080000     -32.97090000     -75.14590000
