40
Properties=species:S:1:pos:R:3 #=T CELL(abcABC):=T 1.889726e+02=T 90.00000=T Traj:=T positionsangstrom=T Step:=T 0=T Bead:=T pbc="F F F"
C      -44.99940000     -29.36220000     -69.52020000
C      -44.06350000     -30.45480000     -69.37550000
C      -43.30170000     -30.91280000     -70.41130000
C      -43.50510000     -30.31440000     -71.70780000
C      -44.31780000     -29.16700000     -71.89870000
C      -44.92390000     -28.64390000     -70.71290000
H      -45.88730000     -29.13230000     -68.89340000
H      -42.60330000     -31.81530000     -70.35020000
H      -44.55840000     -28.78840000     -72.88900000
H      -45.64310000     -27.80360000     -70.86490000
C      -42.85900000     -31.00560000     -72.85770000
H      -41.82060000     -31.15550000     -72.68710000
H      -42.92480000     -30.50100000     -73.80340000
C      -43.99160000     -31.18250000     -68.02760000
H      -43.00390000     -31.73040000     -67.94980000
H      -43.91710000     -30.45280000     -67.18990000
S      -43.70030000     -32.68630000     -73.03620000
S      -45.38820000     -32.35860000     -67.64970000
C      -45.29710000     -32.11730000     -73.75360000
H      -45.42300000     -31.02980000     -73.60710000
H      -45.33470000     -32.33650000     -74.82150000
C      -45.66410000     -33.13470000     -69.35920000
H      -44.76860000     -33.56940000     -69.69400000
H      -45.96190000     -32.30300000     -70.04750000
C      -46.74480000     -34.24850000     -69.43570000
H      -46.91730000     -34.69280000     -68.44900000
H      -47.70320000     -33.78370000     -69.66130000
C      -46.55810000     -32.83180000     -73.04660000
H      -47.54040000     -32.62920000     -73.58720000
H      -46.62210000     -32.36360000     -72.11510000
C      -46.50220000     -34.36840000     -72.94140000
C      -46.46440000     -34.99040000     -74.14950000
C      -46.50660000     -35.31020000     -71.78610000
H      -46.33050000     -34.42940000     -75.05090000
C      -46.40150000     -36.61170000     -72.33390000
C      -46.46950000     -35.39850000     -70.36060000
C      -46.19690000     -36.65830000     -69.84300000
S      -46.31370000     -36.77110000     -74.08260000
S      -46.18750000     -37.81330000     -71.21600000
H      -46.15350000     -36.90460000     -68.79500000
