40
Properties=species:S:1:pos:R:3 #=T CELL(abcABC):=T 1.889726e+02=T 90.00000=T Traj:=T positionsangstrom=T Step:=T 0=T Bead:=T pbc="F F F"
C      -48.87230000     -31.93610000     -71.74720000
C      -47.72650000     -32.15760000     -70.98570000
C      -47.12680000     -33.41930000     -71.13300000
C      -47.64300000     -34.44470000     -71.92440000
C      -48.86820000     -34.23560000     -72.61700000
C      -49.42850000     -32.95790000     -72.52400000
H      -49.32180000     -30.92770000     -71.75730000
H      -46.20170000     -33.61430000     -70.69510000
H      -49.35850000     -34.95060000     -73.24610000
H      -50.33470000     -32.74230000     -73.09830000
C      -46.80490000     -35.62890000     -72.28060000
H      -47.50820000     -36.52220000     -72.35730000
H      -46.04390000     -35.80800000     -71.61690000
C      -47.17320000     -31.12850000     -70.00770000
H      -47.95590000     -30.45460000     -69.51220000
H      -46.62590000     -31.63480000     -69.23400000
S      -46.00470000     -35.58460000     -73.96660000
S      -46.07620000     -29.86860000     -70.78670000
C      -45.17660000     -33.92310000     -74.06180000
H      -45.18930000     -33.58370000     -75.12340000
H      -45.78180000     -33.20000000     -73.42660000
C      -44.88130000     -30.56270000     -71.98420000
H      -44.75620000     -29.77340000     -72.72450000
H      -45.21290000     -31.49510000     -72.55230000
C      -43.44650000     -30.95170000     -71.36350000
H      -42.69120000     -30.96280000     -72.16080000
H      -43.01290000     -30.11200000     -70.75890000
C      -43.64240000     -33.87380000     -73.57320000
H      -43.18330000     -32.82950000     -73.74660000
H      -43.11530000     -34.56880000     -74.20230000
C      -43.44730000     -34.37900000     -72.10330000
C      -43.41220000     -35.71730000     -71.79660000
C      -43.45170000     -33.64990000     -70.85570000
H      -43.35650000     -36.53150000     -72.53720000
C      -43.44160000     -34.39450000     -69.68270000
C      -43.35580000     -32.22880000     -70.44500000
C      -43.30230000     -32.03060000     -69.10580000
S      -43.43220000     -36.07560000     -70.02490000
S      -43.35570000     -33.53170000     -68.17980000
H      -43.36220000     -31.08660000     -68.51340000
