40
Properties=species:S:1:pos:R:3 #=T CELL(abcABC):=T 1.889726e+02=T 90.00000=T Traj:=T positionsangstrom=T Step:=T 0=T Bead:=T pbc="F F F"
C      -44.87270000     -30.63160000     -70.95660000
C      -46.28460000     -30.91580000     -70.80160000
C      -46.70300000     -31.62140000     -69.72700000
C      -45.83540000     -32.17130000     -68.80710000
C      -44.46680000     -31.85790000     -68.90880000
C      -43.98900000     -31.08100000     -70.00260000
H      -44.51130000     -30.20000000     -71.87360000
H      -47.75410000     -31.79010000     -69.65740000
H      -43.74820000     -32.28350000     -68.17760000
H      -42.94040000     -30.92810000     -70.00410000
C      -46.41840000     -33.06320000     -67.66990000
H      -47.55410000     -32.84980000     -67.60850000
H      -45.92650000     -32.86390000     -66.63040000
C      -47.15240000     -30.46350000     -71.91390000
H      -48.26060000     -30.37150000     -71.62250000
H      -46.89910000     -29.51110000     -72.33120000
S      -46.14870000     -34.84830000     -67.98920000
S      -47.13730000     -31.64780000     -73.35520000
C      -46.96520000     -35.20040000     -69.57890000
H      -47.88680000     -35.76970000     -69.37230000
H      -47.34910000     -34.18060000     -69.90300000
C      -47.66240000     -33.28080000     -72.65400000
H      -48.68390000     -33.50600000     -72.51990000
H      -47.29930000     -33.45070000     -71.67300000
C      -47.01440000     -34.37200000     -73.54960000
H      -47.47250000     -35.24770000     -73.21050000
H      -47.28610000     -34.15500000     -74.52390000
C      -46.09580000     -35.96920000     -70.50380000
H      -46.75160000     -36.28630000     -71.24430000
H      -45.77840000     -36.81140000     -69.85740000
C      -44.87530000     -35.29610000     -71.15570000
C      -43.74300000     -35.24440000     -70.37650000
C      -44.68960000     -34.64650000     -72.45400000
H      -43.60060000     -35.60710000     -69.35660000
C      -43.38960000     -34.23060000     -72.62590000
C      -45.51130000     -34.39390000     -73.58500000
C      -44.79610000     -33.73650000     -74.54030000
S      -42.37560000     -34.52480000     -71.20950000
S      -43.11260000     -33.56220000     -74.23790000
H      -45.09330000     -33.55240000     -75.58460000
