40
Properties=species:S:1:pos:R:3 #=T CELL(abcABC):=T 1.889726e+02=T 90.00000=T Traj:=T positionsangstrom=T Step:=T 0=T Bead:=T pbc="F F F"
C      -43.80480000     -34.38800000     -75.60670000
C      -43.56280000     -34.40650000     -74.25490000
C      -44.40330000     -35.18360000     -73.39750000
C      -45.26070000     -36.09090000     -73.94410000
C      -45.38900000     -36.22850000     -75.34970000
C      -44.72580000     -35.32380000     -76.13160000
H      -43.38480000     -33.53570000     -76.22240000
H      -44.03800000     -35.16740000     -72.38770000
H      -46.17180000     -36.88680000     -75.74920000
H      -44.97020000     -35.34640000     -77.17280000
C      -46.17890000     -36.79820000     -73.00420000
H      -46.53070000     -37.76510000     -73.38580000
H      -47.11690000     -36.20350000     -73.02910000
C      -42.50210000     -33.58800000     -73.61440000
H      -42.36210000     -34.01430000     -72.59720000
H      -41.51960000     -33.66510000     -74.19780000
S      -45.66070000     -37.14070000     -71.29130000
S      -42.82830000     -31.66780000     -73.45230000
C      -46.57160000     -35.78620000     -70.36090000
H      -47.61860000     -35.84410000     -70.57290000
H      -46.54530000     -36.04000000     -69.31910000
C      -44.17960000     -31.78270000     -72.24060000
H      -44.77360000     -32.64630000     -72.57340000
H      -44.86440000     -30.87020000     -72.41910000
C      -43.70160000     -31.96170000     -70.78220000
H      -43.66600000     -32.99720000     -70.53970000
H      -42.72780000     -31.54820000     -70.53400000
C      -45.97270000     -34.27050000     -70.49260000
H      -46.07520000     -33.87520000     -71.54240000
H      -44.88860000     -34.38500000     -70.25040000
C      -46.56620000     -33.31840000     -69.55450000
C      -47.66800000     -33.61020000     -68.73810000
C      -45.99600000     -31.98210000     -69.36270000
H      -48.22950000     -34.55180000     -68.74680000
C      -46.75160000     -31.23160000     -68.47340000
C      -44.73820000     -31.30790000     -69.82080000
C      -44.60550000     -30.06320000     -69.21410000
S      -48.05610000     -32.18320000     -67.73310000
S      -45.98250000     -29.68500000     -68.07170000
H      -43.87870000     -29.30880000     -69.37630000
