40
Properties=species:S:1:pos:R:3 #=T CELL(abcABC):=T 1.889726e+02=T 90.00000=T Traj:=T positionsangstrom=T Step:=T 0=T Bead:=T pbc="F F F"
C      -44.88890000     -30.83620000     -70.97290000
C      -46.29720000     -30.94470000     -70.78880000
C      -46.79520000     -31.65790000     -69.66330000
C      -45.95710000     -32.07450000     -68.68820000
C      -44.55630000     -31.78110000     -68.83060000
C      -44.01500000     -31.26950000     -70.00920000
H      -44.59110000     -30.36900000     -71.96650000
H      -47.89990000     -31.77060000     -69.59210000
H      -43.93310000     -32.06710000     -68.03070000
H      -42.93400000     -31.16570000     -70.08970000
C      -46.38500000     -32.91560000     -67.56940000
H      -47.46600000     -32.75810000     -67.23770000
H      -45.79960000     -32.90730000     -66.65550000
C      -47.29840000     -30.51620000     -71.81420000
H      -48.32060000     -30.70060000     -71.58240000
H      -47.08900000     -29.48910000     -72.16020000
S      -46.13280000     -34.75100000     -67.98600000
S      -47.19610000     -31.51130000     -73.48510000
C      -46.93240000     -35.05480000     -69.71260000
H      -47.85010000     -35.64460000     -69.52900000
H      -47.10930000     -34.07320000     -70.00500000
C      -47.52380000     -33.22350000     -72.68180000
H      -48.59240000     -33.39540000     -72.56410000
H      -46.92190000     -33.21130000     -71.75770000
C      -47.04320000     -34.39520000     -73.52020000
H      -47.58360000     -35.34820000     -73.28180000
H      -47.31150000     -34.30010000     -74.61510000
C      -46.05660000     -35.98980000     -70.62040000
H      -46.67020000     -36.32850000     -71.47350000
H      -45.88910000     -36.88910000     -70.07560000
C      -44.74720000     -35.32920000     -71.13200000
C      -43.58610000     -35.33860000     -70.38690000
C      -44.62760000     -34.74300000     -72.44570000
H      -43.55110000     -35.68630000     -69.34380000
C      -43.32210000     -34.28430000     -72.65100000
C      -45.57970000     -34.44310000     -73.49940000
C      -44.88100000     -33.88610000     -74.53670000
S      -42.30030000     -34.50990000     -71.22350000
S      -43.13290000     -33.61270000     -74.19730000
H      -45.33260000     -33.51920000     -75.43660000
