40
Properties=species:S:1:pos:R:3 #=T CELL(abcABC):=T 1.889726e+02=T 90.00000=T Traj:=T positionsangstrom=T Step:=T 0=T Bead:=T pbc="F F F"
C      -45.11180000     -33.06740000     -74.86720000
C      -44.14670000     -33.87210000     -74.29010000
C      -44.44920000     -35.20250000     -73.94030000
C      -45.79230000     -35.61590000     -73.90410000
C      -46.78470000     -34.73550000     -74.30190000
C      -46.47610000     -33.52530000     -74.79690000
H      -44.94900000     -32.12770000     -75.36990000
H      -43.66650000     -35.90140000     -73.55910000
H      -47.84350000     -34.91990000     -74.12780000
H      -47.19330000     -32.71230000     -74.97820000
C      -45.99850000     -37.02050000     -73.40990000
H      -45.37960000     -37.73530000     -73.83420000
H      -47.02340000     -37.30330000     -73.75730000
C      -42.65440000     -33.34750000     -74.27730000
H      -41.89520000     -33.95840000     -73.78290000
H      -42.32520000     -33.19290000     -75.31090000
S      -45.68120000     -37.30050000     -71.59720000
S      -42.61650000     -31.55020000     -73.62830000
C      -46.67450000     -36.13000000     -70.54630000
H      -47.74490000     -35.97360000     -70.97980000
H      -46.81030000     -36.55200000     -69.54400000
C      -43.88850000     -31.54680000     -72.28170000
H      -44.81380000     -31.71530000     -72.75820000
H      -43.96440000     -30.44710000     -72.02260000
C      -43.51250000     -32.43660000     -71.04790000
H      -43.78550000     -33.41120000     -71.32610000
H      -42.42150000     -32.36520000     -70.73930000
C      -46.02460000     -34.70220000     -70.65470000
H      -46.41610000     -34.37240000     -71.67550000
H      -44.91820000     -34.69970000     -70.65010000
C      -46.45060000     -33.64000000     -69.64040000
C      -47.59700000     -33.65750000     -68.85790000
C      -45.70350000     -32.44290000     -69.44640000
H      -48.38500000     -34.43220000     -68.79310000
C      -46.20410000     -31.66910000     -68.36420000
C      -44.38510000     -31.90000000     -69.86520000
C      -43.97840000     -30.90380000     -69.03210000
S      -47.76480000     -32.25640000     -67.77230000
S      -45.14700000     -30.35720000     -67.80720000
H      -42.98880000     -30.49610000     -68.99610000
