40
Properties=species:S:1:pos:R:3 #=T CELL(abcABC):=T 1.889726e+02=T 90.00000=T Traj:=T positionsangstrom=T Step:=T 0=T Bead:=T pbc="F F F"
C      -45.22980000     -30.67100000     -71.37280000
C      -46.64580000     -30.99750000     -71.21130000
C      -47.10600000     -31.62400000     -70.03000000
C      -46.14900000     -32.01820000     -69.04260000
C      -44.78170000     -31.75370000     -69.20540000
C      -44.35010000     -31.10390000     -70.36880000
H      -44.85490000     -30.10540000     -72.17010000
H      -48.03490000     -32.10460000     -69.99490000
H      -44.01550000     -32.06980000     -68.52300000
H      -43.30020000     -31.11930000     -70.66750000
C      -46.52740000     -32.83480000     -67.82720000
H      -47.58330000     -32.91070000     -67.77550000
H      -46.01550000     -32.44450000     -66.89070000
C      -47.64430000     -30.82200000     -72.42760000
H      -48.62660000     -30.75560000     -71.95910000
H      -47.58000000     -29.76520000     -72.79010000
S      -45.96220000     -34.56380000     -68.03390000
S      -47.46600000     -31.86400000     -73.89280000
C      -46.71890000     -34.96410000     -69.63480000
H      -47.83210000     -35.27810000     -69.52170000
H      -46.85300000     -34.07370000     -70.27240000
C      -47.67730000     -33.50410000     -73.16240000
H      -48.60490000     -33.88780000     -73.52330000
H      -47.82310000     -33.48450000     -72.08260000
C      -46.58720000     -34.57650000     -73.57710000
H      -46.75340000     -35.57070000     -73.08570000
H      -46.66700000     -34.68430000     -74.74150000
C      -46.00220000     -36.13380000     -70.41120000
H      -46.71190000     -36.40690000     -71.20120000
H      -45.97150000     -36.97920000     -69.73950000
C      -44.67180000     -35.68680000     -70.97790000
C      -43.56600000     -35.74960000     -70.21000000
C      -44.45590000     -34.72840000     -72.12170000
H      -43.46400000     -36.27910000     -69.30280000
C      -43.10350000     -34.22630000     -72.21110000
C      -45.20540000     -34.20580000     -73.22620000
C      -44.51410000     -33.31990000     -73.97900000
S      -42.24200000     -34.75520000     -70.81690000
S      -42.90180000     -33.08590000     -73.48570000
H      -44.91580000     -32.56880000     -74.67550000
