40
Properties=species:S:1:pos:R:3 #=T CELL(abcABC):=T 1.889726e+02=T 90.00000=T Traj:=T positionsangstrom=T Step:=T 0=T Bead:=T pbc="F F F"
C      -48.63720000     -31.73030000     -71.36520000
C      -47.49940000     -32.19390000     -70.68330000
C      -46.90170000     -33.38700000     -71.07790000
C      -47.55540000     -34.20550000     -72.08930000
C      -48.68440000     -33.74070000     -72.71740000
C      -49.32980000     -32.52970000     -72.30500000
H      -49.11700000     -30.81450000     -71.08480000
H      -45.94420000     -33.80680000     -70.65130000
H      -49.12580000     -34.29550000     -73.59550000
H      -50.29550000     -32.28020000     -72.74580000
C      -46.98050000     -35.53600000     -72.45060000
H      -47.64860000     -36.34340000     -72.50750000
H      -46.22600000     -35.94110000     -71.64920000
C      -46.86220000     -31.23540000     -69.72900000
H      -47.58980000     -30.70840000     -69.15590000
H      -46.24810000     -31.71910000     -68.96640000
S      -45.94650000     -35.67300000     -74.05370000
S      -46.04130000     -29.90370000     -70.76150000
C      -44.98220000     -34.12430000     -73.94940000
H      -45.06770000     -33.69080000     -75.00020000
H      -45.53890000     -33.43760000     -73.33480000
C      -45.07930000     -30.74730000     -72.10240000
H      -45.04380000     -29.93680000     -72.86810000
H      -45.69530000     -31.62680000     -72.35780000
C      -43.64660000     -31.14960000     -71.78380000
H      -43.36510000     -31.60130000     -72.78070000
H      -42.98580000     -30.25860000     -71.58290000
C      -43.47030000     -34.25980000     -73.53780000
H      -43.07060000     -33.28460000     -73.65690000
H      -42.88340000     -34.97140000     -74.18800000
C      -43.48330000     -34.61200000     -72.04240000
C      -43.36120000     -35.94060000     -71.64890000
C      -43.56380000     -33.72540000     -70.90000000
H      -43.35850000     -36.85040000     -72.22740000
C      -43.44690000     -34.38950000     -69.67990000
C      -43.66750000     -32.27950000     -70.69320000
C      -43.67230000     -31.94550000     -69.37510000
S      -43.41670000     -36.08910000     -69.86920000
S      -43.61170000     -33.29930000     -68.29480000
H      -43.61540000     -30.93310000     -68.96020000
