40
Properties=species:S:1:pos:R:3 #=T CELL(abcABC):=T 1.889726e+02=T 90.00000=T Traj:=T positionsangstrom=T Step:=T 0=T Bead:=T pbc="F F F"
C      -45.03720000     -30.72330000     -71.22330000
C      -46.40180000     -31.12020000     -71.07690000
C      -46.73350000     -31.74960000     -69.85000000
C      -45.77870000     -32.22640000     -68.93100000
C      -44.40410000     -31.88810000     -69.11850000
C      -44.07370000     -31.18670000     -70.32650000
H      -44.65700000     -30.25630000     -72.16740000
H      -47.80390000     -31.85300000     -69.65730000
H      -43.61620000     -32.35560000     -68.59740000
H      -43.06540000     -31.00490000     -70.59750000
C      -46.19530000     -32.99530000     -67.70010000
H      -47.14220000     -32.68850000     -67.36250000
H      -45.43710000     -32.87170000     -66.89870000
C      -47.46580000     -30.60740000     -72.01770000
H      -48.35590000     -30.62970000     -71.40970000
H      -47.26280000     -29.66680000     -72.39530000
S      -46.32480000     -34.86080000     -67.96200000
S      -47.56470000     -31.81980000     -73.45110000
C      -47.01350000     -35.16620000     -69.60740000
H      -47.77170000     -35.91440000     -69.41840000
H      -47.29020000     -34.10440000     -69.96300000
C      -47.49210000     -33.51860000     -72.76180000
H      -48.53580000     -33.83840000     -72.45620000
H      -47.01460000     -33.40650000     -71.76600000
C      -46.81550000     -34.49540000     -73.74790000
H      -47.10710000     -35.45590000     -73.36100000
H      -47.22240000     -34.38310000     -74.71150000
C      -46.06260000     -35.91740000     -70.59300000
H      -46.62310000     -36.22050000     -71.39690000
H      -45.77040000     -36.85970000     -69.99690000
C      -44.84260000     -35.20560000     -71.06500000
C      -43.69730000     -35.20500000     -70.25160000
C      -44.62420000     -34.51330000     -72.30650000
H      -43.69000000     -35.68320000     -69.33980000
C      -43.31680000     -34.02430000     -72.34020000
C      -45.32830000     -34.21780000     -73.58470000
C      -44.54220000     -33.62150000     -74.51980000
S      -42.30060000     -34.45190000     -70.93100000
S      -42.87280000     -33.33510000     -73.93490000
H      -44.87000000     -33.39120000     -75.55010000
