40
Properties=species:S:1:pos:R:3 #=T CELL(abcABC):=T 1.889726e+02=T 90.00000=T Traj:=T positionsangstrom=T Step:=T 0=T Bead:=T pbc="F F F"
C      -45.08540000     -30.69960000     -71.31390000
C      -46.40960000     -31.03790000     -71.05520000
C      -46.72130000     -31.77040000     -69.90740000
C      -45.75890000     -32.24780000     -69.01370000
C      -44.38880000     -31.90830000     -69.29050000
C      -44.11140000     -31.07160000     -70.32880000
H      -44.77090000     -30.04510000     -72.10800000
H      -47.75190000     -31.95630000     -69.74090000
H      -43.66730000     -32.12960000     -68.51400000
H      -43.15640000     -30.58180000     -70.52850000
C      -46.14480000     -33.07180000     -67.78660000
H      -47.16850000     -32.70420000     -67.45540000
H      -45.50440000     -32.84050000     -66.86920000
C      -47.52800000     -30.71320000     -72.06050000
H      -48.55170000     -30.71190000     -71.60930000
H      -47.38660000     -29.63280000     -72.40130000
S      -46.23240000     -34.92010000     -68.03840000
S      -47.67400000     -31.74280000     -73.51130000
C      -47.06950000     -35.10110000     -69.63250000
H      -48.03550000     -35.65270000     -69.57420000
H      -47.37050000     -34.16090000     -69.97550000
C      -47.67270000     -33.43580000     -72.84780000
H      -48.65920000     -33.79360000     -72.88550000
H      -47.32610000     -33.43380000     -71.83030000
C      -46.84630000     -34.44150000     -73.69110000
H      -47.03390000     -35.51020000     -73.43150000
H      -47.13300000     -34.38340000     -74.77270000
C      -46.13560000     -35.88450000     -70.64060000
H      -46.61430000     -36.12160000     -71.59610000
H      -45.80000000     -36.76040000     -70.04750000
C      -44.80080000     -35.27360000     -70.99970000
C      -43.66700000     -35.22160000     -70.15740000
C      -44.51960000     -34.62620000     -72.25590000
H      -43.70250000     -35.61300000     -69.13590000
C      -43.18300000     -34.18920000     -72.31850000
C      -45.29320000     -34.22250000     -73.46180000
C      -44.47930000     -33.54690000     -74.29710000
S      -42.26650000     -34.49900000     -70.91690000
S      -42.85390000     -33.32140000     -73.77750000
H      -44.86460000     -33.08070000     -75.22890000
