40
Properties=species:S:1:pos:R:3 #=T CELL(abcABC):=T 1.889726e+02=T 90.00000=T Traj:=T positionsangstrom=T Step:=T 0=T Bead:=T pbc="F F F"
C      -44.98200000     -30.62030000     -71.61900000
C      -46.35330000     -30.93180000     -71.48170000
C      -46.80070000     -31.68660000     -70.37350000
C      -45.86500000     -32.16610000     -69.36990000
C      -44.54340000     -31.83880000     -69.54380000
C      -44.09080000     -30.99760000     -70.57640000
H      -44.71590000     -30.09650000     -72.53530000
H      -47.95380000     -31.89180000     -70.28800000
H      -43.82080000     -32.08350000     -68.77560000
H      -43.01700000     -30.71950000     -70.61090000
C      -46.41890000     -32.84250000     -68.10380000
H      -47.46520000     -32.68510000     -67.97860000
H      -45.86940000     -32.56350000     -67.27980000
C      -47.38150000     -30.45640000     -72.44650000
H      -48.31190000     -30.04840000     -71.97340000
H      -47.01620000     -29.56230000     -72.94610000
S      -46.27980000     -34.72970000     -68.11200000
S      -47.60850000     -31.69160000     -73.77600000
C      -46.88670000     -35.23980000     -69.75980000
H      -47.89850000     -35.64100000     -69.72110000
H      -46.96370000     -34.37770000     -70.43400000
C      -47.79530000     -33.41750000     -72.99990000
H      -48.77860000     -33.79690000     -73.33880000
H      -47.83430000     -33.41320000     -71.89610000
C      -46.74330000     -34.48430000     -73.46980000
H      -46.86610000     -35.46530000     -72.91620000
H      -46.79800000     -34.65230000     -74.52080000
C      -45.96610000     -36.28340000     -70.37920000
H      -46.53200000     -36.92900000     -71.12280000
H      -45.60580000     -36.91360000     -69.64640000
C      -44.68520000     -35.67740000     -70.93870000
C      -43.58130000     -35.77990000     -70.08900000
C      -44.49780000     -34.74760000     -72.01150000
H      -43.46530000     -36.25260000     -69.08700000
C      -43.25780000     -34.23440000     -71.98100000
C      -45.31900000     -34.18050000     -73.12990000
C      -44.60300000     -33.24960000     -73.84250000
S      -42.21340000     -34.83600000     -70.69460000
S      -42.96470000     -33.07090000     -73.20250000
H      -44.85230000     -32.53380000     -74.64630000
