40
Properties=species:S:1:pos:R:3 #=T CELL(abcABC):=T 1.889726e+02=T 90.00000=T Traj:=T positionsangstrom=T Step:=T 0=T Bead:=T pbc="F F F"
C      -45.06550000     -33.10130000     -74.97190000
C      -44.13190000     -33.88540000     -74.22030000
C      -44.52190000     -35.17960000     -73.78540000
C      -45.83330000     -35.67150000     -73.98400000
C      -46.75580000     -34.89080000     -74.68310000
C      -46.37730000     -33.59240000     -75.03760000
H      -44.82710000     -32.08380000     -75.35040000
H      -43.81540000     -35.78710000     -73.17660000
H      -47.78740000     -35.18330000     -74.83370000
H      -47.10370000     -33.04930000     -75.67060000
C      -46.29640000     -36.94480000     -73.25400000
H      -45.95590000     -37.83540000     -73.78030000
H      -47.40050000     -37.02770000     -73.17970000
C      -42.73700000     -33.34670000     -74.09660000
H      -42.11390000     -33.89500000     -73.39010000
H      -42.17700000     -33.45610000     -75.10100000
S      -45.70260000     -37.21850000     -71.50040000
S      -42.57320000     -31.67240000     -73.53700000
C      -46.59690000     -35.97360000     -70.52320000
H      -47.63330000     -36.21720000     -70.54360000
H      -46.24460000     -36.24900000     -69.56690000
C      -43.84220000     -31.38540000     -72.29130000
H      -44.93810000     -31.47690000     -72.58010000
H      -43.69700000     -30.34030000     -71.94970000
C      -43.50670000     -32.28520000     -71.02740000
H      -43.44260000     -33.33070000     -71.27090000
H      -42.45940000     -32.05360000     -70.74630000
C      -46.19720000     -34.47380000     -70.88860000
H      -46.58670000     -34.10590000     -71.80970000
H      -45.14600000     -34.54660000     -71.04370000
C      -46.47390000     -33.52380000     -69.77920000
C      -47.61800000     -33.65370000     -69.00990000
C      -45.68200000     -32.44620000     -69.41500000
H      -48.43550000     -34.31600000     -69.16740000
C      -46.12190000     -31.79240000     -68.23690000
C      -44.39870000     -31.86910000     -69.91010000
C      -43.99640000     -30.88930000     -69.08850000
S      -47.68990000     -32.33250000     -67.75020000
S      -45.11200000     -30.46690000     -67.75310000
H      -43.12930000     -30.25500000     -69.36730000
