40
Properties=species:S:1:pos:R:3 #=T CELL(abcABC):=T 1.889726e+02=T 90.00000=T Traj:=T positionsangstrom=T Step:=T 0=T Bead:=T pbc="F F F"
C      -45.10760000     -32.66120000     -74.94410000
C      -43.99240000     -33.35230000     -74.61690000
C      -44.07400000     -34.66290000     -74.20490000
C      -45.29830000     -35.31020000     -73.91920000
C      -46.45100000     -34.52630000     -74.14020000
C      -46.33510000     -33.21690000     -74.63170000
H      -45.06890000     -31.62860000     -75.29680000
H      -43.14520000     -35.15530000     -74.03040000
H      -47.51060000     -34.75320000     -73.97000000
H      -47.26160000     -32.57890000     -74.72890000
C      -45.44160000     -36.77720000     -73.54290000
H      -45.12410000     -37.45820000     -74.29580000
H      -46.47520000     -36.95430000     -73.37420000
C      -42.65620000     -32.67860000     -74.49620000
H      -41.79200000     -33.36200000     -74.45790000
H      -42.40170000     -32.06430000     -75.36420000
S      -44.53400000     -37.08690000     -71.92750000
S      -42.59460000     -31.69060000     -73.08100000
C      -45.70690000     -36.32030000     -70.67930000
H      -46.59970000     -36.28910000     -71.19440000
H      -45.73820000     -36.98780000     -69.78080000
C      -44.09920000     -31.87320000     -72.06540000
H      -44.49920000     -32.92580000     -72.21890000
H      -44.91450000     -31.17050000     -72.21010000
C      -43.68330000     -31.79170000     -70.55360000
H      -43.18790000     -32.80110000     -70.23880000
H      -43.00120000     -30.92760000     -70.44140000
C      -45.24520000     -34.89770000     -70.31040000
H      -45.06520000     -34.37570000     -71.24910000
H      -44.29510000     -35.04520000     -69.89260000
C      -46.10330000     -34.01550000     -69.48580000
C      -47.22250000     -34.44600000     -68.79020000
C      -45.79870000     -32.64250000     -69.20530000
H      -47.58860000     -35.41660000     -68.92200000
C      -46.80850000     -32.06510000     -68.37640000
C      -44.97880000     -31.65830000     -69.77140000
C      -45.28100000     -30.41610000     -69.21310000
S      -48.12780000     -33.16000000     -67.90170000
S      -46.66480000     -30.40530000     -68.15030000
H      -44.66520000     -29.54120000     -69.29250000
