40
Properties=species:S:1:pos:R:3 #=T CELL(abcABC):=T 1.889726e+02=T 90.00000=T Traj:=T positionsangstrom=T Step:=T 0=T Bead:=T pbc="F F F"
C      -45.52730000     -30.99130000     -71.52910000
C      -46.84750000     -31.16460000     -71.13710000
C      -47.19590000     -31.62020000     -69.86050000
C      -46.08830000     -31.97740000     -69.03140000
C      -44.75420000     -31.68040000     -69.30080000
C      -44.47430000     -31.28910000     -70.62580000
H      -45.26330000     -30.72820000     -72.56330000
H      -48.26190000     -31.70870000     -69.47900000
H      -43.91980000     -31.91170000     -68.62840000
H      -43.50270000     -31.10400000     -70.90860000
C      -46.49940000     -32.76250000     -67.81650000
H      -47.64070000     -32.83100000     -67.71590000
H      -46.07530000     -32.46540000     -66.85750000
C      -47.83810000     -30.82880000     -72.17770000
H      -48.88590000     -31.15810000     -71.85120000
H      -47.80660000     -29.80820000     -72.47300000
S      -45.99610000     -34.55390000     -68.01840000
S      -47.40400000     -31.78340000     -73.71470000
C      -46.81130000     -34.87670000     -69.66890000
H      -47.78190000     -35.19890000     -69.43970000
H      -46.77310000     -33.92130000     -70.17680000
C      -47.63740000     -33.52340000     -73.06030000
H      -48.63170000     -33.81910000     -73.48050000
H      -47.64170000     -33.47710000     -71.98110000
C      -46.60200000     -34.46480000     -73.63370000
H      -46.95080000     -35.46880000     -73.40490000
H      -46.58570000     -34.25630000     -74.65170000
C      -46.03580000     -35.97150000     -70.45630000
H      -46.63310000     -36.23580000     -71.37310000
H      -46.01560000     -36.91700000     -69.96350000
C      -44.60240000     -35.51820000     -70.90550000
C      -43.46020000     -35.63390000     -70.18400000
C      -44.41390000     -34.71760000     -72.12230000
H      -43.39260000     -36.17090000     -69.27010000
C      -43.12090000     -34.18430000     -72.21510000
C      -45.18490000     -34.25060000     -73.23060000
C      -44.46020000     -33.48180000     -74.05700000
S      -42.08420000     -34.75000000     -70.91530000
S      -42.82860000     -33.18130000     -73.56360000
H      -44.73030000     -33.11720000     -75.06400000
