40
Properties=species:S:1:pos:R:3 #=T CELL(abcABC):=T 1.889726e+02=T 90.00000=T Traj:=T positionsangstrom=T Step:=T 0=T Bead:=T pbc="F F F"
C      -44.68600000     -30.97660000     -70.33840000
C      -46.05630000     -31.14590000     -70.21680000
C      -46.62860000     -32.20600000     -69.53610000
C      -45.76380000     -33.18700000     -68.94120000
C      -44.38460000     -32.98540000     -68.99940000
C      -43.82210000     -31.89310000     -69.74410000
H      -44.30470000     -30.05850000     -70.86500000
H      -47.67040000     -32.32050000     -69.52270000
H      -43.67930000     -33.70940000     -68.47500000
H      -42.72780000     -31.72330000     -69.64090000
C      -46.42600000     -34.30410000     -68.16410000
H      -47.44450000     -34.03840000     -68.10720000
H      -45.98630000     -34.30450000     -67.12720000
C      -47.09860000     -30.18270000     -70.86480000
H      -48.04880000     -30.23720000     -70.35560000
H      -46.64880000     -29.16180000     -70.76670000
S      -46.43720000     -36.00260000     -68.70450000
S      -47.21060000     -30.56300000     -72.66660000
C      -47.17980000     -35.73020000     -70.38960000
H      -48.12900000     -36.23740000     -70.39720000
H      -47.26880000     -34.56430000     -70.40800000
C      -47.89110000     -32.25620000     -72.76730000
H      -48.89930000     -32.20410000     -73.20270000
H      -47.91680000     -32.66610000     -71.74250000
C      -47.04900000     -33.30490000     -73.50500000
H      -47.45740000     -34.31140000     -73.27890000
H      -47.19420000     -33.12460000     -74.62760000
C      -46.19140000     -36.21720000     -71.45470000
H      -46.74980000     -36.38850000     -72.35420000
H      -45.75230000     -37.14470000     -71.11290000
C      -44.91930000     -35.38390000     -71.65220000
C      -43.74840000     -35.81210000     -71.00180000
C      -44.67010000     -34.30460000     -72.58810000
H      -43.53260000     -36.69990000     -70.35870000
C      -43.32830000     -33.90990000     -72.66490000
C      -45.50380000     -33.32510000     -73.33680000
C      -44.70930000     -32.49950000     -74.04420000
S      -42.32560000     -34.82370000     -71.49950000
S      -42.96230000     -32.60750000     -73.70790000
H      -45.11090000     -31.86330000     -74.84630000
