40
Properties=species:S:1:pos:R:3 #=T CELL(abcABC):=T 1.889726e+02=T 90.00000=T Traj:=T positionsangstrom=T Step:=T 0=T Bead:=T pbc="F F F"
C      -49.35390000     -31.84320000     -70.49980000
C      -48.53200000     -32.06650000     -71.63460000
C      -48.17150000     -33.33250000     -71.92040000
C      -48.48990000     -34.39340000     -71.04810000
C      -49.34840000     -34.18720000     -69.95380000
C      -49.74880000     -32.90860000     -69.63590000
H      -49.55760000     -30.77510000     -70.20170000
H      -47.58570000     -33.57920000     -72.83430000
H      -49.86380000     -34.96550000     -69.39550000
H      -50.30120000     -32.73190000     -68.71470000
C      -48.25960000     -35.74570000     -71.57730000
H      -47.84480000     -35.75990000     -72.59370000
H      -49.22370000     -36.31190000     -71.70560000
C      -48.17350000     -30.85300000     -72.42670000
H      -49.13370000     -30.46060000     -72.93750000
H      -47.91300000     -29.98220000     -71.81120000
S      -47.20330000     -36.77050000     -70.39340000
S      -46.93440000     -31.15510000     -73.69210000
C      -45.90930000     -35.51760000     -69.96030000
H      -46.40730000     -34.59660000     -69.58800000
H      -45.30700000     -35.92860000     -69.11960000
C      -45.43220000     -31.28220000     -72.66390000
H      -45.78650000     -31.63800000     -71.68730000
H      -44.88680000     -30.34430000     -72.50550000
C      -44.49200000     -32.32150000     -73.19790000
H      -44.93370000     -33.35880000     -73.20720000
H      -44.22600000     -31.99570000     -74.23680000
C      -44.97540000     -35.13250000     -71.09790000
H      -45.51050000     -34.37170000     -71.72520000
H      -44.78350000     -36.01240000     -71.71880000
C      -43.60290000     -34.50540000     -70.67400000
C      -42.87420000     -34.96500000     -69.59080000
C      -42.92410000     -33.35770000     -71.32260000
H      -43.03760000     -35.81900000     -69.00080000
C      -41.65260000     -33.11270000     -70.78840000
C      -43.15640000     -32.47010000     -72.40220000
C      -42.07280000     -31.70360000     -72.66940000
S      -41.32060000     -34.12770000     -69.47150000
S      -40.69440000     -31.95490000     -71.66510000
H      -41.99760000     -30.87600000     -73.34400000
