40
Properties=species:S:1:pos:R:3 #=T CELL(abcABC):=T 1.889726e+02=T 90.00000=T Traj:=T positionsangstrom=T Step:=T 0=T Bead:=T pbc="F F F"
C      -46.99050000     -32.38810000     -68.36460000
C      -47.38430000     -33.59240000     -68.95060000
C      -46.69290000     -34.76560000     -68.59290000
C      -45.48370000     -34.74510000     -67.90940000
C      -45.18690000     -33.48920000     -67.29180000
C      -45.87470000     -32.30130000     -67.52060000
H      -47.55780000     -31.46640000     -68.49470000
H      -47.15670000     -35.64100000     -69.05030000
H      -44.25200000     -33.45500000     -66.67210000
H      -45.52460000     -31.35120000     -67.09730000
C      -44.50940000     -35.87140000     -67.86100000
H      -44.88770000     -36.69850000     -67.24030000
H      -43.57060000     -35.55460000     -67.37030000
C      -48.64140000     -33.61870000     -69.84680000
H      -48.90030000     -34.67610000     -70.22270000
H      -49.55270000     -33.40160000     -69.31400000
S      -44.01480000     -36.52910000     -69.54390000
S      -48.45570000     -32.52950000     -71.29860000
C      -43.49700000     -35.04580000     -70.51230000
H      -44.04070000     -34.08530000     -70.25050000
H      -42.42680000     -34.81620000     -70.31490000
C      -48.14910000     -33.76040000     -72.53800000
H      -48.61870000     -33.48070000     -73.50100000
H      -48.67250000     -34.71720000     -72.33560000
C      -46.62230000     -33.98180000     -72.62820000
H      -46.24560000     -34.15920000     -71.67900000
H      -46.42910000     -34.91070000     -73.28250000
C      -43.53500000     -35.15800000     -72.16960000
H      -44.42650000     -35.84530000     -72.49470000
H      -42.56880000     -35.71100000     -72.30320000
C      -43.40350000     -33.87480000     -72.83650000
C      -42.13270000     -33.43010000     -73.24560000
C      -44.42300000     -32.88650000     -73.21070000
H      -41.15360000     -34.01780000     -73.19150000
C      -43.87200000     -31.68160000     -73.73100000
C      -45.82000000     -32.79050000     -73.08330000
C      -46.39400000     -31.66910000     -73.62770000
S      -42.16500000     -31.85820000     -74.09050000
S      -45.18810000     -30.58240000     -74.27200000
H      -47.50430000     -31.56630000     -73.76340000
