40
Properties=species:S:1:pos:R:3 #=T CELL(abcABC):=T 1.889726e+02=T 90.00000=T Traj:=T positionsangstrom=T Step:=T 0=T Bead:=T pbc="F F F"
C      -46.83570000     -32.45760000     -68.01930000
C      -47.54960000     -33.35360000     -68.90780000
C      -47.06290000     -34.62510000     -69.18020000
C      -45.87990000     -35.05320000     -68.51960000
C      -45.22270000     -34.17540000     -67.58080000
C      -45.66090000     -32.88290000     -67.33500000
H      -47.08890000     -31.39460000     -67.89250000
H      -47.50760000     -35.24280000     -69.94540000
H      -44.30590000     -34.45470000     -67.05650000
H      -45.04400000     -32.11920000     -66.74030000
C      -45.36020000     -36.43800000     -68.51610000
H      -46.02620000     -37.18520000     -68.00510000
H      -44.39380000     -36.46030000     -67.98960000
C      -48.72110000     -32.71050000     -69.56420000
H      -49.28360000     -33.47480000     -70.16000000
H      -49.53720000     -32.44440000     -68.84950000
S      -45.24670000     -37.04680000     -70.31440000
S      -48.22670000     -31.25330000     -70.57190000
C      -44.18560000     -35.70850000     -70.82760000
H      -44.42640000     -34.71380000     -70.32560000
H      -43.16940000     -35.85270000     -70.68150000
C      -47.97550000     -32.24830000     -72.17910000
H      -48.15090000     -31.49400000     -73.02850000
H      -48.87050000     -32.87440000     -72.22290000
C      -46.61270000     -32.87180000     -72.28420000
H      -46.36760000     -33.12230000     -71.25970000
H      -46.68000000     -33.86650000     -72.82380000
C      -44.46160000     -35.44150000     -72.37840000
H      -45.52580000     -35.47760000     -72.50230000
H      -44.11090000     -36.26930000     -72.99820000
C      -43.72260000     -34.25180000     -72.90940000
C      -42.48410000     -34.47240000     -73.48080000
C      -44.27250000     -32.92440000     -73.19000000
H      -41.87080000     -35.38960000     -73.60510000
C      -43.28020000     -32.08390000     -73.69670000
C      -45.49670000     -32.18190000     -72.85670000
C      -45.35910000     -30.90090000     -73.27100000
S      -41.85280000     -32.94670000     -74.14130000
S      -43.76680000     -30.46570000     -73.86470000
H      -46.12220000     -30.13350000     -73.18470000
