40
Properties=species:S:1:pos:R:3 #=T CELL(abcABC):=T 1.889726e+02=T 90.00000=T Traj:=T positionsangstrom=T Step:=T 0=T Bead:=T pbc="F F F"
C      -45.01150000     -31.23480000     -69.93670000
C      -46.37730000     -31.36470000     -69.75760000
C      -46.84760000     -32.52510000     -69.00110000
C      -45.98500000     -33.56940000     -68.71170000
C      -44.54900000     -33.38480000     -68.84460000
C      -44.10580000     -32.18160000     -69.47470000
H      -44.73710000     -30.37150000     -70.50930000
H      -47.91080000     -32.67210000     -68.80940000
H      -43.90280000     -34.15860000     -68.42570000
H      -43.03910000     -32.00600000     -69.51350000
C      -46.43900000     -34.82210000     -68.08140000
H      -47.45330000     -34.72670000     -67.70560000
H      -45.86230000     -35.00220000     -67.16130000
C      -47.38120000     -30.39770000     -70.43590000
H      -48.43310000     -30.58530000     -70.08570000
H      -46.97570000     -29.34850000     -70.19080000
S      -46.29700000     -36.40420000     -69.16200000
S      -47.20880000     -30.58170000     -72.24140000
C      -46.86710000     -35.65240000     -70.68430000
H      -47.95850000     -35.79970000     -70.86680000
H      -46.72680000     -34.62030000     -70.69170000
C      -47.64010000     -32.45470000     -72.48330000
H      -48.68900000     -32.60300000     -72.38850000
H      -47.26600000     -32.93160000     -71.53650000
C      -46.90720000     -33.04530000     -73.69360000
H      -47.18350000     -34.11220000     -73.84820000
H      -47.23140000     -32.42670000     -74.57510000
C      -46.02380000     -36.03230000     -71.96840000
H      -46.76670000     -35.88950000     -72.83510000
H      -45.81880000     -37.03740000     -72.15120000
C      -44.77080000     -35.26750000     -72.09040000
C      -43.66230000     -35.65020000     -71.34550000
C      -44.60270000     -33.99560000     -72.78010000
H      -43.71010000     -36.43130000     -70.62990000
C      -43.29660000     -33.62100000     -72.76590000
C      -45.39250000     -33.02430000     -73.56990000
C      -44.62560000     -32.06020000     -74.15410000
S      -42.33580000     -34.53980000     -71.65030000
S      -42.93020000     -32.18500000     -73.70020000
H      -44.96580000     -31.27860000     -74.81900000
