40
Properties=species:S:1:pos:R:3 #=T CELL(abcABC):=T 1.889726e+02=T 90.00000=T Traj:=T positionsangstrom=T Step:=T 0=T Bead:=T pbc="F F F"
C      -44.89750000     -30.91420000     -70.30630000
C      -46.25200000     -31.11570000     -70.27310000
C      -46.76660000     -32.26680000     -69.57030000
C      -45.83940000     -33.11610000     -68.96940000
C      -44.45680000     -32.92490000     -68.97190000
C      -43.98010000     -31.78180000     -69.65890000
H      -44.54980000     -29.95550000     -70.77760000
H      -47.81730000     -32.44350000     -69.33600000
H      -43.82240000     -33.48990000     -68.38960000
H      -42.94910000     -31.56020000     -69.74260000
C      -46.28670000     -34.31340000     -68.22910000
H      -47.34600000     -34.23450000     -67.93020000
H      -45.69340000     -34.45910000     -67.30040000
C      -47.12050000     -30.15240000     -70.88710000
H      -48.09900000     -29.91150000     -70.37420000
H      -46.56510000     -29.12240000     -70.93570000
S      -46.21030000     -36.02230000     -69.13170000
S      -47.38810000     -30.45010000     -72.66100000
C      -47.20930000     -35.74810000     -70.67720000
H      -48.09520000     -36.37700000     -70.57950000
H      -47.67730000     -34.75920000     -70.59340000
C      -47.71780000     -32.24130000     -72.72450000
H      -48.68750000     -32.32040000     -73.13470000
H      -47.67450000     -32.63000000     -71.67830000
C      -46.72540000     -32.91940000     -73.64350000
H      -47.04900000     -33.98410000     -73.70130000
H      -46.82670000     -32.44190000     -74.62940000
C      -46.52780000     -36.06760000     -72.03300000
H      -47.12840000     -35.66570000     -72.92370000
H      -46.56190000     -37.16620000     -72.10590000
C      -45.08820000     -35.55960000     -72.09580000
C      -44.06330000     -36.35550000     -71.67910000
C      -44.61360000     -34.17970000     -72.47050000
H      -44.10670000     -37.40520000     -71.43750000
C      -43.22510000     -34.07440000     -72.39160000
C      -45.24380000     -33.01800000     -73.18320000
C      -44.30390000     -32.03950000     -73.34950000
S      -42.49060000     -35.47390000     -71.60140000
S      -42.73250000     -32.42000000     -72.78330000
H      -44.39200000     -31.03400000     -73.60290000
