40
Properties=species:S:1:pos:R:3 #=T CELL(abcABC):=T 1.889726e+02=T 90.00000=T Traj:=T positionsangstrom=T Step:=T 0=T Bead:=T pbc="F F F"
C      -44.97960000     -30.69510000     -70.05610000
C      -46.34530000     -31.04540000     -70.05490000
C      -46.76660000     -32.24280000     -69.45780000
C      -45.75760000     -33.12110000     -68.98940000
C      -44.40080000     -32.84520000     -69.20720000
C      -43.98870000     -31.64480000     -69.76370000
H      -44.75700000     -29.76690000     -70.57060000
H      -47.85730000     -32.46880000     -69.48130000
H      -43.71550000     -33.68420000     -69.04560000
H      -42.90890000     -31.46770000     -69.94080000
C      -46.23750000     -34.42520000     -68.34790000
H      -47.25270000     -34.27010000     -67.91930000
H      -45.61590000     -34.64160000     -67.47890000
C      -47.47880000     -30.23250000     -70.74070000
H      -48.40940000     -30.62490000     -70.44150000
H      -47.49100000     -29.16280000     -70.60630000
S      -46.29670000     -36.06140000     -69.22430000
S      -47.31350000     -30.46850000     -72.55900000
C      -47.25250000     -35.77600000     -70.91080000
H      -48.24140000     -36.24930000     -70.83430000
H      -47.34680000     -34.70350000     -70.91700000
C      -47.60080000     -32.28860000     -72.74770000
H      -48.61650000     -32.47750000     -73.18540000
H      -47.67970000     -32.79770000     -71.81210000
C      -46.62210000     -32.97200000     -73.68950000
H      -47.02120000     -33.90980000     -73.96860000
H      -46.59220000     -32.42950000     -74.66650000
C      -46.40820000     -36.20830000     -72.11660000
H      -46.90800000     -35.80410000     -72.99090000
H      -46.36640000     -37.25650000     -72.32080000
C      -45.05460000     -35.57450000     -71.99680000
C      -43.95440000     -36.24110000     -71.49380000
C      -44.68100000     -34.19690000     -72.44070000
H      -43.88080000     -37.28360000     -71.27900000
C      -43.29090000     -34.01920000     -72.28990000
C      -45.24010000     -33.06970000     -73.15860000
C      -44.36450000     -32.03090000     -73.36920000
S      -42.46070000     -35.38940000     -71.63160000
S      -42.70680000     -32.47200000     -72.80040000
H      -44.50670000     -31.06780000     -73.87750000
