40
Properties=species:S:1:pos:R:3 #=T CELL(abcABC):=T 1.889726e+02=T 90.00000=T Traj:=T positionsangstrom=T Step:=T 0=T Bead:=T pbc="F F F"
C      -45.58690000     -31.44000000     -70.02680000
C      -46.91460000     -31.90540000     -69.88290000
C      -47.08750000     -33.12250000     -69.22680000
C      -46.07420000     -33.92810000     -68.67570000
C      -44.78930000     -33.40010000     -68.73330000
C      -44.62690000     -32.11970000     -69.24180000
H      -45.31360000     -30.50690000     -70.56530000
H      -48.04360000     -33.56580000     -69.06050000
H      -43.94510000     -33.89020000     -68.17860000
H      -43.59820000     -31.61290000     -69.00740000
C      -46.41170000     -35.34570000     -68.29050000
H      -47.46980000     -35.43480000     -67.89570000
H      -45.85440000     -35.56520000     -67.39910000
C      -48.00790000     -31.19800000     -70.59700000
H      -48.96750000     -31.50840000     -70.23000000
H      -47.91690000     -30.14360000     -70.34730000
S      -45.96810000     -36.59600000     -69.57750000
S      -48.01380000     -30.95910000     -72.44280000
C      -46.68390000     -35.86380000     -71.13820000
H      -47.75810000     -36.24640000     -71.36400000
H      -46.84360000     -34.83260000     -70.88510000
C      -47.69790000     -32.71030000     -72.93460000
H      -48.52790000     -33.16920000     -73.55830000
H      -47.53830000     -33.27990000     -72.06420000
C      -46.46900000     -32.77640000     -73.88490000
H      -46.47390000     -33.78580000     -74.34780000
H      -46.61480000     -32.01160000     -74.67910000
C      -45.71930000     -35.91980000     -72.25250000
H      -46.16670000     -35.79030000     -73.21800000
H      -45.24610000     -36.87290000     -72.47240000
C      -44.48320000     -34.98620000     -72.13390000
C      -43.33290000     -35.43910000     -71.55170000
C      -44.26720000     -33.59430000     -72.61180000
H      -43.17270000     -36.43060000     -71.10880000
C      -43.00970000     -33.15590000     -72.43090000
C      -45.07190000     -32.56720000     -73.27660000
C      -44.38010000     -31.35500000     -73.40710000
S      -42.01010000     -34.33660000     -71.57140000
S      -42.74400000     -31.51800000     -72.85960000
H      -44.78000000     -30.45380000     -73.81250000
