40
Properties=species:S:1:pos:R:3 #=T CELL(abcABC):=T 1.889726e+02=T 90.00000=T Traj:=T positionsangstrom=T Step:=T 0=T Bead:=T pbc="F F F"
C      -46.31560000     -32.54480000     -67.82140000
C      -47.27240000     -33.08420000     -68.67570000
C      -47.32110000     -34.42200000     -68.97090000
C      -46.26800000     -35.24360000     -68.61020000
C      -45.10770000     -34.66250000     -68.00170000
C      -45.19780000     -33.27800000     -67.57840000
H      -46.30700000     -31.45960000     -67.54260000
H      -48.14470000     -34.83510000     -69.58210000
H      -44.17410000     -35.22610000     -67.86150000
H      -44.40000000     -32.89570000     -67.00180000
C      -46.29930000     -36.64870000     -69.17750000
H      -47.25450000     -37.08350000     -69.05150000
H      -45.47070000     -37.19090000     -68.82010000
C      -48.37130000     -32.21910000     -69.13720000
H      -49.20380000     -32.79540000     -69.51540000
H      -48.83980000     -31.61500000     -68.34420000
S      -46.04170000     -36.70060000     -70.94650000
S      -47.88580000     -31.16800000     -70.63380000
C      -44.46230000     -35.83940000     -71.26670000
H      -44.37030000     -34.88290000     -70.64790000
H      -43.64630000     -36.53410000     -70.91790000
C      -47.89760000     -32.30500000     -72.04330000
H      -48.10880000     -31.62150000     -72.89990000
H      -48.80720000     -32.85870000     -71.92360000
C      -46.68600000     -33.17540000     -72.30810000
H      -46.47370000     -33.76210000     -71.38580000
H      -46.86790000     -33.99570000     -73.17630000
C      -44.22740000     -35.63110000     -72.71600000
H      -45.13490000     -35.68550000     -73.28940000
H      -43.65390000     -36.51230000     -73.03770000
C      -43.48850000     -34.35240000     -72.98590000
C      -42.11850000     -34.26600000     -73.17010000
C      -44.12860000     -33.08760000     -73.12230000
H      -41.50640000     -35.14200000     -73.33220000
C      -43.25280000     -32.09420000     -73.51830000
C      -45.45540000     -32.45980000     -72.77820000
C      -45.43050000     -31.12100000     -73.02040000
S      -41.58580000     -32.68540000     -73.66370000
S      -43.89170000     -30.45910000     -73.51150000
H      -46.23450000     -30.43040000     -72.85050000
