40
Properties=species:S:1:pos:R:3 #=T CELL(abcABC):=T 1.889726e+02=T 90.00000=T Traj:=T positionsangstrom=T Step:=T 0=T Bead:=T pbc="F F F"
C      -44.88760000     -31.40650000     -69.67720000
C      -46.23350000     -31.53890000     -69.78410000
C      -46.78900000     -32.71590000     -69.27100000
C      -46.01900000     -33.68950000     -68.55850000
C      -44.64450000     -33.47210000     -68.31170000
C      -44.12970000     -32.30000000     -68.86570000
H      -44.32840000     -30.67720000     -70.31760000
H      -47.86680000     -32.96020000     -69.48290000
H      -44.04450000     -34.22330000     -67.80600000
H      -43.02420000     -32.12410000     -68.93010000
C      -46.66240000     -35.00410000     -68.12670000
H      -47.74080000     -34.90220000     -68.18540000
H      -46.39160000     -35.25660000     -67.11940000
C      -47.08590000     -30.52210000     -70.47930000
H      -48.18640000     -30.72770000     -70.23040000
H      -46.70770000     -29.51630000     -70.26680000
S      -46.30060000     -36.55130000     -69.18270000
S      -47.10810000     -30.75840000     -72.37520000
C      -47.00350000     -35.89750000     -70.85800000
H      -47.85290000     -36.48990000     -71.11420000
H      -47.36860000     -34.88910000     -70.55820000
C      -47.63140000     -32.48740000     -72.65570000
H      -48.73530000     -32.52480000     -72.81460000
H      -47.43130000     -33.16450000     -71.83500000
C      -46.93780000     -33.05430000     -73.83990000
H      -47.33390000     -34.06500000     -74.03250000
H      -47.18660000     -32.45560000     -74.72170000
C      -46.02990000     -35.99310000     -72.02870000
H      -46.50010000     -35.85250000     -72.96110000
H      -45.62140000     -37.01830000     -71.86740000
C      -44.80500000     -35.03120000     -72.02450000
C      -43.68630000     -35.34870000     -71.30290000
C      -44.58340000     -33.81680000     -72.84140000
H      -43.64290000     -36.19830000     -70.56750000
C      -43.29280000     -33.29790000     -72.65540000
C      -45.42840000     -32.97410000     -73.66390000
C      -44.68380000     -32.07420000     -74.35100000
S      -42.36270000     -34.21090000     -71.53230000
S      -42.97080000     -31.98960000     -73.81170000
H      -45.02670000     -31.27890000     -74.98490000
