40
Properties=species:S:1:pos:R:3 #=T CELL(abcABC):=T 1.889726e+02=T 90.00000=T Traj:=T positionsangstrom=T Step:=T 0=T Bead:=T pbc="F F F"
C      -45.79420000     -31.23520000     -69.77940000
C      -47.03890000     -31.84070000     -69.96010000
C      -47.12260000     -33.17950000     -69.48190000
C      -46.01820000     -33.86310000     -68.87090000
C      -44.83680000     -33.18230000     -68.74330000
C      -44.69830000     -31.84900000     -69.20640000
H      -45.75160000     -30.16820000     -69.89730000
H      -48.07980000     -33.69080000     -69.70400000
H      -44.03920000     -33.58310000     -68.19830000
H      -43.84750000     -31.26160000     -68.99300000
C      -46.10010000     -35.28300000     -68.43400000
H      -47.00370000     -35.55900000     -67.94470000
H      -45.21440000     -35.59900000     -67.74190000
C      -48.08220000     -31.18730000     -70.78700000
H      -48.97310000     -31.82910000     -70.75630000
H      -48.60570000     -30.29920000     -70.41090000
S      -45.87500000     -36.69490000     -69.67710000
S      -47.81410000     -30.99430000     -72.61910000
C      -46.56220000     -36.12400000     -71.28960000
H      -47.44540000     -36.74380000     -71.63830000
H      -46.97660000     -35.11020000     -71.05300000
C      -47.50610000     -32.77120000     -73.09190000
H      -48.40490000     -33.14310000     -73.54770000
H      -47.27120000     -33.36240000     -72.15830000
C      -46.33910000     -32.87160000     -74.05790000
H      -46.37960000     -33.90090000     -74.56450000
H      -46.48370000     -32.09650000     -74.86270000
C      -45.66610000     -35.98330000     -72.56980000
H      -46.26170000     -35.70530000     -73.42230000
H      -45.19800000     -36.94620000     -72.82680000
C      -44.47910000     -35.01530000     -72.25190000
C      -43.49600000     -35.45920000     -71.35530000
C      -44.25800000     -33.63440000     -72.71730000
H      -43.43540000     -36.46430000     -70.90520000
C      -43.04340000     -33.17670000     -72.16820000
C      -44.99620000     -32.67820000     -73.45880000
C      -44.40670000     -31.38310000     -73.33450000
S      -42.24700000     -34.26610000     -71.11770000
S      -42.86550000     -31.47090000     -72.49600000
H      -44.79900000     -30.42680000     -73.76840000
