40
Properties=species:S:1:pos:R:3 #=T CELL(abcABC):=T 1.889726e+02=T 90.00000=T Traj:=T positionsangstrom=T Step:=T 0=T Bead:=T pbc="F F F"
C      -44.83100000     -31.61550000     -69.40450000
C      -46.19030000     -31.74890000     -69.75560000
C      -46.76800000     -32.92340000     -69.31220000
C      -46.06600000     -33.91780000     -68.67310000
C      -44.79110000     -33.69830000     -68.21060000
C      -44.19400000     -32.50040000     -68.57270000
H      -44.34490000     -30.69670000     -69.62250000
H      -47.85840000     -33.00250000     -69.52570000
H      -44.35990000     -34.36160000     -67.43500000
H      -43.21900000     -32.31800000     -68.23440000
C      -46.73060000     -35.20320000     -68.25180000
H      -47.86930000     -35.12500000     -68.16880000
H      -46.35520000     -35.64470000     -67.31070000
C      -46.92120000     -30.65160000     -70.42850000
H      -47.95420000     -30.48670000     -70.01600000
H      -46.51810000     -29.60990000     -70.34350000
S      -46.32630000     -36.54070000     -69.49250000
S      -47.02280000     -30.89940000     -72.28270000
C      -46.98860000     -35.93300000     -71.05150000
H      -47.83130000     -36.46810000     -71.42180000
H      -47.38860000     -34.95140000     -70.86120000
C      -47.70530000     -32.54620000     -72.68760000
H      -48.67000000     -32.34440000     -73.18320000
H      -47.76510000     -33.15520000     -71.83390000
C      -46.84640000     -33.13220000     -73.90070000
H      -47.17470000     -34.17010000     -74.08240000
H      -47.20330000     -32.54010000     -74.72310000
C      -45.97540000     -35.83050000     -72.18970000
H      -46.54620000     -35.62950000     -73.12870000
H      -45.56500000     -36.85580000     -72.28990000
C      -44.85780000     -34.90500000     -71.96610000
C      -43.63690000     -35.21100000     -71.35970000
C      -44.61530000     -33.67930000     -72.71270000
H      -43.43070000     -36.02490000     -70.74440000
C      -43.34290000     -33.12730000     -72.64360000
C      -45.37640000     -32.98280000     -73.73060000
C      -44.75850000     -31.83190000     -74.25170000
S      -42.29780000     -34.00990000     -71.53560000
S      -43.06960000     -31.74950000     -73.65880000
H      -45.01690000     -31.12480000     -75.01250000
