40
Properties=species:S:1:pos:R:3 #=T CELL(abcABC):=T 1.889726e+02=T 90.00000=T Traj:=T positionsangstrom=T Step:=T 0=T Bead:=T pbc="F F F"
C      -45.16090000     -31.46650000     -69.57850000
C      -46.57890000     -31.76110000     -69.62000000
C      -46.94820000     -33.07130000     -69.41050000
C      -46.06410000     -34.02010000     -68.71910000
C      -44.75730000     -33.60490000     -68.62010000
C      -44.24780000     -32.36090000     -69.06020000
H      -44.87350000     -30.48280000     -69.94420000
H      -48.03090000     -33.22790000     -69.41670000
H      -44.05220000     -34.32020000     -68.12870000
H      -43.16800000     -32.07860000     -68.82080000
C      -46.61990000     -35.39370000     -68.35670000
H      -47.72150000     -35.37140000     -68.23300000
H      -46.14260000     -35.66740000     -67.35170000
C      -47.45960000     -30.70440000     -70.21190000
H      -48.54950000     -30.71980000     -69.96510000
H      -47.10820000     -29.70630000     -69.97100000
S      -46.11290000     -36.66540000     -69.61980000
S      -47.08240000     -30.62960000     -72.02930000
C      -46.85220000     -36.11250000     -71.27360000
H      -47.50290000     -36.92850000     -71.51370000
H      -47.31600000     -35.13840000     -71.17280000
C      -47.61640000     -32.32060000     -72.59790000
H      -48.68530000     -32.23930000     -72.74310000
H      -47.31490000     -33.04750000     -71.80140000
C      -46.88340000     -32.90320000     -73.78550000
H      -47.29280000     -33.87750000     -73.96090000
H      -47.03550000     -32.28310000     -74.68320000
C      -45.75610000     -36.04740000     -72.34160000
H      -46.22730000     -35.87100000     -73.30700000
H      -45.47110000     -37.10730000     -72.51580000
C      -44.65020000     -35.05360000     -72.19210000
C      -43.64950000     -35.24780000     -71.30750000
C      -44.46120000     -33.78080000     -72.89070000
H      -43.48530000     -36.18590000     -70.69780000
C      -43.18800000     -33.26920000     -72.73840000
C      -45.35900000     -32.90550000     -73.58710000
C      -44.72610000     -31.75070000     -73.93750000
S      -42.36090000     -34.01310000     -71.39490000
S      -43.01180000     -31.74230000     -73.47890000
H      -45.25070000     -30.99370000     -74.50100000
