40
Properties=species:S:1:pos:R:3 #=T CELL(abcABC):=T 1.889726e+02=T 90.00000=T Traj:=T positionsangstrom=T Step:=T 0=T Bead:=T pbc="F F F"
C      -45.73640000     -31.22880000     -69.79170000
C      -46.97720000     -31.71170000     -70.26610000
C      -47.37110000     -33.02660000     -69.98570000
C      -46.55350000     -33.81060000     -69.20260000
C      -45.29880000     -33.40580000     -68.75220000
C      -44.91940000     -32.07700000     -69.01730000
H      -45.48730000     -30.19000000     -69.90430000
H      -48.36830000     -33.34940000     -70.24910000
H      -44.77920000     -34.11390000     -68.17470000
H      -44.00950000     -31.73110000     -68.62080000
C      -46.87140000     -35.29160000     -68.88910000
H      -47.95550000     -35.37380000     -68.88380000
H      -46.73360000     -35.37780000     -67.77350000
C      -47.83160000     -30.93080000     -71.22110000
H      -48.86060000     -31.03580000     -70.86910000
H      -47.32930000     -29.91750000     -71.17090000
S      -45.93630000     -36.60100000     -69.70210000
S      -47.80860000     -31.16990000     -73.06850000
C      -46.31060000     -36.23060000     -71.45410000
H      -46.93570000     -37.11730000     -71.79190000
H      -46.91540000     -35.32420000     -71.54320000
C      -47.48490000     -33.03630000     -73.53530000
H      -48.20270000     -33.27370000     -74.24030000
H      -47.64310000     -33.63810000     -72.59380000
C      -46.03700000     -33.21150000     -74.12850000
H      -45.99620000     -34.25080000     -74.48530000
H      -45.92990000     -32.55170000     -75.00130000
C      -45.03870000     -36.23080000     -72.36940000
H      -45.32290000     -36.11510000     -73.43610000
H      -44.65260000     -37.23320000     -72.35130000
C      -44.01670000     -35.11990000     -71.93100000
C      -42.99250000     -35.42290000     -71.08610000
C      -44.08980000     -33.72900000     -72.33830000
H      -42.60470000     -36.42250000     -70.74170000
C      -43.08530000     -32.88290000     -71.69460000
C      -44.90340000     -32.93340000     -73.21140000
C      -44.56740000     -31.58260000     -73.13990000
S      -41.99810000     -33.92220000     -70.71540000
S      -43.23680000     -31.24140000     -72.15180000
H      -45.04440000     -30.86320000     -73.78290000
