40
Properties=species:S:1:pos:R:3 #=T CELL(abcABC):=T 1.889726e+02=T 90.00000=T Traj:=T positionsangstrom=T Step:=T 0=T Bead:=T pbc="F F F"
C      -45.64760000     -31.28720000     -69.90450000
C      -46.82340000     -31.86800000     -70.46390000
C      -47.12160000     -33.17100000     -70.05960000
C      -46.27350000     -33.89980000     -69.26130000
C      -45.05460000     -33.29760000     -68.72540000
C      -44.72760000     -31.96500000     -69.13170000
H      -45.44180000     -30.29280000     -70.39810000
H      -48.08840000     -33.67410000     -70.38850000
H      -44.36110000     -33.88890000     -68.11050000
H      -43.80050000     -31.47940000     -68.81890000
C      -46.74670000     -35.21790000     -68.70060000
H      -47.77090000     -35.41280000     -68.88980000
H      -46.37760000     -35.41580000     -67.67580000
C      -47.86620000     -31.04940000     -71.10540000
H      -48.83500000     -31.51900000     -70.90790000
H      -48.03590000     -30.04030000     -70.69820000
S      -45.80860000     -36.64520000     -69.60380000
S      -47.78050000     -31.05740000     -72.99710000
C      -46.32180000     -36.33860000     -71.33960000
H      -46.98560000     -37.12370000     -71.58230000
H      -46.84270000     -35.39300000     -71.40780000
C      -47.64290000     -32.81650000     -73.27310000
H      -48.40890000     -33.21320000     -74.00830000
H      -47.80420000     -33.37160000     -72.33830000
C      -46.33580000     -33.19840000     -73.96090000
H      -46.26080000     -34.26550000     -74.09440000
H      -46.37280000     -32.69520000     -74.91130000
C      -45.15250000     -36.26660000     -72.37020000
H      -45.62940000     -36.18130000     -73.34230000
H      -44.53190000     -37.18670000     -72.38320000
C      -44.16880000     -35.08070000     -72.12720000
C      -43.19780000     -35.33210000     -71.24800000
C      -44.23490000     -33.68260000     -72.48650000
H      -42.99200000     -36.31860000     -70.75210000
C      -43.17310000     -32.96020000     -71.85560000
C      -45.10510000     -32.80370000     -73.19650000
C      -44.60800000     -31.51220000     -73.13360000
S      -42.09810000     -34.00480000     -70.87560000
S      -43.22350000     -31.26020000     -72.07500000
H      -45.04800000     -30.73110000     -73.72840000
