40
Properties=species:S:1:pos:R:3 #=T CELL(abcABC):=T 1.889726e+02=T 90.00000=T Traj:=T positionsangstrom=T Step:=T 0=T Bead:=T pbc="F F F"
C      -46.18790000     -31.32730000     -70.07930000
C      -47.38200000     -31.87500000     -70.65460000
C      -47.70280000     -33.19980000     -70.25130000
C      -46.95300000     -33.99700000     -69.38870000
C      -45.81870000     -33.38650000     -68.80930000
C      -45.42160000     -32.07080000     -69.23270000
H      -45.90370000     -30.30800000     -70.41750000
H      -48.62910000     -33.66090000     -70.72880000
H      -45.08020000     -34.00290000     -68.24960000
H      -44.42330000     -31.76250000     -68.86510000
C      -47.40420000     -35.32010000     -68.94670000
H      -48.48420000     -35.50040000     -69.20090000
H      -47.46520000     -35.18160000     -67.82200000
C      -48.26080000     -31.18860000     -71.72470000
H      -49.16680000     -31.83060000     -71.81410000
H      -48.33140000     -30.12110000     -71.48060000
S      -46.13380000     -36.63850000     -69.53210000
S      -47.32590000     -31.21050000     -73.36540000
C      -46.12270000     -36.33450000     -71.40720000
H      -46.81630000     -37.07790000     -71.81760000
H      -46.67420000     -35.34040000     -71.61420000
C      -47.02910000     -33.04420000     -73.52080000
H      -47.75790000     -33.54980000     -74.15970000
H      -47.16400000     -33.45740000     -72.52000000
C      -45.68010000     -33.43360000     -74.16360000
H      -45.63570000     -34.54190000     -74.12800000
H      -45.61430000     -33.02500000     -75.22130000
C      -44.71560000     -36.23880000     -71.97700000
H      -44.75850000     -36.23440000     -73.03810000
H      -44.04920000     -37.10700000     -71.77350000
C      -43.91420000     -34.99240000     -71.51410000
C      -43.01010000     -35.06120000     -70.49240000
C      -43.99240000     -33.62250000     -72.20160000
H      -42.92700000     -35.87600000     -69.88530000
C      -43.04960000     -32.84670000     -71.57390000
C      -44.57420000     -32.93220000     -73.29970000
C      -44.09360000     -31.66590000     -73.45020000
S      -42.26380000     -33.52870000     -70.12880000
S      -42.78730000     -31.25340000     -72.31730000
H      -44.19220000     -30.91950000     -74.20710000
