40
Properties=species:S:1:pos:R:3 #=T CELL(abcABC):=T 1.889726e+02=T 90.00000=T Traj:=T positionsangstrom=T Step:=T 0=T Bead:=T pbc="F F F"
C      -46.00400000     -32.98790000     -68.06120000
C      -47.06410000     -32.83660000     -68.94930000
C      -47.53180000     -34.02200000     -69.58550000
C      -46.90680000     -35.24440000     -69.49550000
C      -45.78690000     -35.32520000     -68.60950000
C      -45.30990000     -34.17120000     -67.99230000
H      -45.68180000     -32.05090000     -67.52130000
H      -48.38050000     -33.92020000     -70.31550000
H      -45.14780000     -36.21090000     -68.49320000
H      -44.42390000     -34.22770000     -67.44510000
C      -47.61870000     -36.45690000     -70.13320000
H      -48.70480000     -36.44680000     -70.10970000
H      -47.22940000     -37.40920000     -69.67870000
C      -47.77870000     -31.53840000     -69.04640000
H      -48.77390000     -31.57510000     -69.51010000
H      -47.91580000     -31.08920000     -68.07280000
S      -47.29290000     -36.68060000     -72.01360000
S      -46.93410000     -30.18880000     -70.00360000
C      -45.70430000     -35.81450000     -72.24980000
H      -45.66690000     -34.99130000     -71.53340000
H      -44.88550000     -36.53430000     -71.94590000
C      -47.06700000     -30.66210000     -71.78010000
H      -46.70080000     -29.80600000     -72.31050000
H      -48.15620000     -30.63160000     -71.97780000
C      -46.39870000     -32.01180000     -72.08010000
H      -46.78790000     -32.69730000     -71.37040000
H      -46.70170000     -32.25440000     -73.05410000
C      -45.51500000     -35.15210000     -73.59360000
H      -46.44250000     -34.56300000     -73.91480000
H      -45.48760000     -35.89710000     -74.45150000
C      -44.34640000     -34.18490000     -73.58660000
C      -43.15830000     -34.74920000     -74.04360000
C      -44.07510000     -33.07980000     -72.81990000
H      -43.07040000     -35.74250000     -74.50050000
C      -42.69020000     -32.73050000     -72.75270000
C      -44.85380000     -32.04420000     -72.12950000
C      -44.05610000     -31.11940000     -71.47440000
S      -41.69960000     -33.91750000     -73.46800000
S      -42.33300000     -31.34800000     -71.77870000
H      -44.31180000     -30.24040000     -70.94590000
