40
Properties=species:S:1:pos:R:3 #=T CELL(abcABC):=T 1.889726e+02=T 90.00000=T Traj:=T positionsangstrom=T Step:=T 0=T Bead:=T pbc="F F F"
C      -46.13940000     -33.16640000     -68.33670000
C      -47.36260000     -32.89440000     -68.88880000
C      -47.98440000     -34.01580000     -69.51980000
C      -47.28800000     -35.22740000     -69.54040000
C      -46.11320000     -35.49440000     -68.84520000
C      -45.50710000     -34.39770000     -68.21310000
H      -45.54640000     -32.39370000     -67.88770000
H      -48.92140000     -33.81930000     -70.08410000
H      -45.73980000     -36.50550000     -68.85690000
H      -44.49740000     -34.49920000     -67.78520000
C      -47.95230000     -36.32460000     -70.34750000
H      -48.92390000     -36.48950000     -69.99440000
H      -47.37180000     -37.26570000     -70.32520000
C      -47.94440000     -31.44460000     -68.90040000
H      -48.82420000     -31.28530000     -69.49310000
H      -48.20700000     -31.09210000     -67.91250000
S      -47.87610000     -35.79580000     -72.14510000
S      -46.66040000     -30.36280000     -69.64190000
C      -46.08010000     -35.64590000     -72.46220000
H      -45.70970000     -35.32620000     -71.51250000
H      -45.61240000     -36.67700000     -72.49370000
C      -46.59840000     -30.75840000     -71.39280000
H      -46.19590000     -29.84520000     -71.80250000
H      -47.59260000     -30.72780000     -71.75540000
C      -45.99110000     -32.06810000     -71.87810000
H      -46.38330000     -32.94670000     -71.33840000
H      -46.25810000     -32.15960000     -72.96270000
C      -45.64640000     -34.76050000     -73.63910000
H      -46.27240000     -33.82030000     -73.82600000
H      -45.84590000     -35.43530000     -74.42020000
C      -44.20590000     -34.41180000     -73.51820000
C      -43.07780000     -34.85870000     -74.24380000
C      -43.81140000     -33.21030000     -72.69270000
H      -43.06850000     -35.70570000     -74.93900000
C      -42.45580000     -32.99230000     -72.66840000
C      -44.51000000     -32.18920000     -71.93140000
C      -43.68080000     -31.27090000     -71.34720000
S      -41.56730000     -34.04470000     -73.77490000
S      -41.96010000     -31.55180000     -71.67850000
H      -43.96770000     -30.45940000     -70.71810000
