40
Properties=species:S:1:pos:R:3 #=T CELL(abcABC):=T 1.889726e+02=T 90.00000=T Traj:=T positionsangstrom=T Step:=T 0=T Bead:=T pbc="F F F"
C      -46.38100000     -33.73530000     -67.92230000
C      -47.17340000     -32.99880000     -68.86060000
C      -47.87410000     -33.70860000     -69.83710000
C      -47.98530000     -35.08210000     -69.76600000
C      -47.37690000     -35.70290000     -68.63320000
C      -46.56150000     -35.07560000     -67.71850000
H      -45.65770000     -33.13300000     -67.35660000
H      -48.37940000     -33.13600000     -70.57720000
H      -47.51290000     -36.83060000     -68.51590000
H      -46.02070000     -35.58020000     -66.94410000
C      -48.81800000     -35.97330000     -70.83950000
H      -49.83140000     -35.64670000     -70.90480000
H      -48.79470000     -37.01560000     -70.44540000
C      -47.13070000     -31.50880000     -68.76600000
H      -48.01000000     -31.09620000     -69.23640000
H      -47.21800000     -31.13860000     -67.76380000
S      -48.15910000     -35.63000000     -72.49860000
S      -45.59880000     -30.63580000     -69.35520000
C      -46.27670000     -35.41070000     -72.44530000
H      -45.91170000     -34.84350000     -71.47740000
H      -45.69920000     -36.31560000     -72.35240000
C      -46.06110000     -30.34940000     -71.09040000
H      -45.64340000     -29.43590000     -71.47360000
H      -47.17370000     -30.03120000     -71.06720000
C      -45.72140000     -31.45750000     -72.07760000
H      -46.40250000     -32.24050000     -71.87250000
H      -45.97970000     -31.06110000     -73.06150000
C      -45.73480000     -34.66090000     -73.63750000
H      -46.41660000     -33.82950000     -73.96580000
H      -45.72440000     -35.27170000     -74.53980000
C      -44.31910000     -34.23790000     -73.38810000
C      -43.33150000     -35.05430000     -73.80720000
C      -43.78020000     -33.02520000     -72.80890000
H      -43.51060000     -36.06920000     -74.09690000
C      -42.37520000     -33.05050000     -72.84850000
C      -44.26700000     -31.82770000     -72.10730000
C      -43.26710000     -31.03810000     -71.65140000
S      -41.70750000     -34.40610000     -73.55590000
S      -41.74120000     -31.66300000     -71.93070000
H      -43.46890000     -30.03410000     -71.18050000
