40
Properties=species:S:1:pos:R:3 #=T CELL(abcABC):=T 1.889726e+02=T 90.00000=T Traj:=T positionsangstrom=T Step:=T 0=T Bead:=T pbc="F F F"
C      -46.30620000     -33.42950000     -67.99630000
C      -47.32870000     -32.91380000     -68.83270000
C      -48.05880000     -33.77670000     -69.66130000
C      -47.80440000     -35.18320000     -69.60900000
C      -46.81980000     -35.59650000     -68.75960000
C      -46.09190000     -34.81220000     -67.90210000
H      -45.72500000     -32.73830000     -67.38770000
H      -48.88660000     -33.31590000     -70.26320000
H      -46.63440000     -36.58900000     -68.67890000
H      -45.29770000     -35.26500000     -67.28860000
C      -48.45430000     -36.07930000     -70.62880000
H      -49.56900000     -36.05290000     -70.52310000
H      -48.12900000     -37.07600000     -70.47720000
C      -47.70150000     -31.44990000     -68.67640000
H      -48.52320000     -31.19460000     -69.27960000
H      -47.88440000     -31.13750000     -67.64870000
S      -48.06490000     -35.70100000     -72.36910000
S      -46.20070000     -30.45430000     -69.33820000
C      -46.23830000     -35.29250000     -72.46490000
H      -45.86220000     -34.72200000     -71.61620000
H      -45.83690000     -36.41220000     -72.25350000
C      -46.45950000     -30.73000000     -71.18480000
H      -46.08570000     -29.81080000     -71.65230000
H      -47.51960000     -30.84800000     -71.47620000
C      -45.73920000     -31.97850000     -71.74110000
H      -46.02220000     -32.84990000     -71.13300000
H      -46.21460000     -32.18710000     -72.64200000
C      -45.63600000     -34.60780000     -73.69750000
H      -46.14600000     -33.66040000     -73.90480000
H      -45.66060000     -35.36070000     -74.53970000
C      -44.21760000     -34.19870000     -73.55830000
C      -43.22740000     -34.94450000     -74.11210000
C      -43.71040000     -33.09410000     -72.70050000
H      -43.41950000     -35.71220000     -74.88960000
C      -42.32300000     -33.11220000     -72.73310000
C      -44.20050000     -31.99450000     -71.90980000
C      -43.21870000     -31.10550000     -71.41800000
S      -41.62600000     -34.22460000     -73.88370000
S      -41.67390000     -31.72710000     -71.99140000
H      -43.23020000     -30.23700000     -70.85680000
