40
Properties=species:S:1:pos:R:3 #=T CELL(abcABC):=T 1.889726e+02=T 90.00000=T Traj:=T positionsangstrom=T Step:=T 0=T Bead:=T pbc="F F F"
C      -46.53990000     -33.79290000     -67.62080000
C      -47.10030000     -33.05490000     -68.67220000
C      -47.82490000     -33.69220000     -69.69540000
C      -48.03830000     -35.05940000     -69.79280000
C      -47.49420000     -35.73400000     -68.72630000
C      -46.76020000     -35.15980000     -67.69000000
H      -46.08340000     -33.32740000     -66.79810000
H      -48.27560000     -33.03330000     -70.42750000
H      -47.75470000     -36.85510000     -68.64650000
H      -46.42410000     -35.83110000     -66.84430000
C      -48.84220000     -35.72440000     -70.83420000
H      -49.85180000     -35.24270000     -70.95710000
H      -49.04050000     -36.77940000     -70.72110000
C      -46.93430000     -31.56460000     -68.64820000
H      -47.76560000     -31.14840000     -69.21390000
H      -46.91400000     -31.24730000     -67.59300000
S      -48.13680000     -35.58610000     -72.59340000
S      -45.41260000     -30.68870000     -69.44740000
C      -46.46200000     -35.11380000     -72.37070000
H      -46.38110000     -34.46720000     -71.49220000
H      -45.82120000     -36.00430000     -72.14800000
C      -45.97250000     -30.30720000     -71.20590000
H      -45.59090000     -29.35130000     -71.51350000
H      -47.00630000     -30.23240000     -71.13950000
C      -45.71410000     -31.43610000     -72.08040000
H      -46.23540000     -32.36240000     -71.82630000
H      -46.13830000     -31.09950000     -73.03540000
C      -45.89470000     -34.29080000     -73.59930000
H      -46.27610000     -33.23520000     -73.64300000
H      -46.13940000     -34.86900000     -74.44490000
C      -44.33970000     -34.15230000     -73.45650000
C      -43.39760000     -35.05770000     -73.91220000
C      -43.76570000     -33.04400000     -72.80750000
H      -43.57040000     -35.85050000     -74.58590000
C      -42.39840000     -33.21550000     -72.64270000
C      -44.25370000     -31.78490000     -72.29090000
C      -43.21490000     -30.92980000     -71.91130000
S      -41.77190000     -34.62720000     -73.35640000
S      -41.65530000     -31.78310000     -72.04740000
H      -43.29700000     -29.96010000     -71.44820000
