40
Properties=species:S:1:pos:R:3 #=T CELL(abcABC):=T 1.889726e+02=T 90.00000=T Traj:=T positionsangstrom=T Step:=T 0=T Bead:=T pbc="F F F"
C      -50.06330000     -32.69740000     -71.59060000
C      -49.02020000     -33.63350000     -71.47540000
C      -48.16630000     -33.57350000     -70.37790000
C      -48.39610000     -32.67010000     -69.32960000
C      -49.42000000     -31.72140000     -69.48510000
C      -50.24830000     -31.66290000     -70.63060000
H      -50.73700000     -32.74040000     -72.33050000
H      -47.32400000     -34.25220000     -70.32050000
H      -49.55400000     -30.97790000     -68.73750000
H      -51.00350000     -30.81450000     -70.79440000
C      -47.63780000     -32.61710000     -68.00560000
H      -48.41520000     -32.87110000     -67.24060000
H      -47.26150000     -31.63980000     -67.69500000
C      -48.64960000     -34.72060000     -72.37930000
H      -48.10270000     -35.53820000     -71.86250000
H      -49.48000000     -35.16650000     -72.93370000
S      -46.23880000     -33.87870000     -67.97060000
S      -47.60780000     -34.15150000     -73.85010000
C      -44.91650000     -33.26190000     -69.13300000
H      -45.35040000     -32.51730000     -69.82550000
H      -44.19040000     -32.62820000     -68.66240000
C      -45.81990000     -34.26700000     -73.24340000
H      -45.26300000     -34.57450000     -74.15020000
H      -45.65120000     -35.04910000     -72.42700000
C      -45.37450000     -32.92030000     -72.63240000
H      -45.89050000     -32.17980000     -73.26880000
H      -45.97240000     -32.60590000     -71.63820000
C      -44.24500000     -34.46700000     -69.83280000
H      -44.93900000     -34.90090000     -70.56730000
H      -44.00460000     -35.37060000     -69.19220000
C      -42.96940000     -34.23180000     -70.60990000
C      -41.77510000     -34.80790000     -70.30570000
C      -42.83880000     -33.35720000     -71.82920000
H      -41.50160000     -35.42710000     -69.48020000
C      -41.49110000     -33.19460000     -72.27850000
C      -43.85320000     -32.74180000     -72.72090000
C      -43.25540000     -32.09240000     -73.77240000
S      -40.42690000     -34.15710000     -71.26440000
S      -41.51260000     -32.18290000     -73.76140000
H      -43.75130000     -31.37390000     -74.42130000
