40
Properties=species:S:1:pos:R:3 #=T CELL(abcABC):=T 1.889726e+02=T 90.00000=T Traj:=T positionsangstrom=T Step:=T 0=T Bead:=T pbc="F F F"
C      -45.43590000     -34.44810000     -74.70590000
C      -46.56450000     -33.84500000     -74.23050000
C      -47.32860000     -34.50010000     -73.30130000
C      -47.09070000     -35.78000000     -72.83980000
C      -45.99240000     -36.44970000     -73.42900000
C      -45.15990000     -35.79590000     -74.28510000
H      -44.76490000     -33.78820000     -75.29440000
H      -48.17840000     -33.97530000     -72.83560000
H      -45.80220000     -37.50020000     -73.11970000
H      -44.29570000     -36.26980000     -74.80230000
C      -48.08240000     -36.49830000     -71.94990000
H      -47.60490000     -37.39750000     -71.55050000
H      -49.02310000     -36.52160000     -72.45510000
C      -47.03280000     -32.46300000     -74.71300000
H      -47.21950000     -32.55850000     -75.78820000
H      -47.97270000     -32.12280000     -74.20980000
S      -48.52820000     -35.43070000     -70.47980000
S      -45.71180000     -31.21370000     -74.50590000
C      -46.97740000     -35.13690000     -69.60850000
H      -47.26690000     -34.83350000     -68.61710000
H      -46.41210000     -36.05120000     -69.51710000
C      -44.75850000     -31.71710000     -73.07090000
H      -43.67860000     -31.34420000     -73.25960000
H      -44.64310000     -32.81330000     -73.06410000
C      -45.14310000     -31.05240000     -71.73480000
H      -45.29200000     -29.95370000     -71.97460000
H      -46.10790000     -31.40390000     -71.40840000
C      -46.17680000     -34.06080000     -70.27120000
H      -46.83650000     -33.33910000     -70.55500000
H      -45.72450000     -34.44650000     -71.16970000
C      -45.04080000     -33.53130000     -69.37980000
C      -44.56310000     -34.28900000     -68.30500000
C      -44.14770000     -32.37090000     -69.67830000
H      -44.99080000     -35.27160000     -67.96570000
C      -43.09040000     -32.33190000     -68.75810000
C      -44.12810000     -31.33370000     -70.64900000
C      -43.01320000     -30.50990000     -70.48000000
S      -42.97640000     -33.69390000     -67.67280000
S      -42.02490000     -30.96130000     -69.05320000
H      -42.91920000     -29.64480000     -71.20340000
