40
Properties=species:S:1:pos:R:3 #=T CELL(abcABC):=T 1.889726e+02=T 90.00000=T Traj:=T positionsangstrom=T Step:=T 0=T Bead:=T pbc="F F F"
C      -48.64520000     -32.67740000     -71.72610000
C      -48.53890000     -34.06810000     -71.62330000
C      -48.22670000     -34.65100000     -70.36560000
C      -48.02750000     -33.77670000     -69.29670000
C      -48.06240000     -32.40550000     -69.40630000
C      -48.49800000     -31.87690000     -70.61100000
H      -48.97840000     -32.29250000     -72.78430000
H      -48.21730000     -35.73300000     -70.35490000
H      -48.08250000     -31.71290000     -68.57240000
H      -48.64220000     -30.77270000     -70.62910000
C      -47.60950000     -34.39870000     -67.90050000
H      -48.33520000     -35.20200000     -67.65330000
H      -47.80370000     -33.64510000     -67.09970000
C      -48.65230000     -35.02160000     -72.76970000
H      -48.36610000     -36.00980000     -72.42610000
H      -49.65840000     -35.09140000     -73.13290000
S      -45.96000000     -35.19240000     -67.89780000
S      -47.61890000     -34.51060000     -74.27460000
C      -44.83740000     -33.83530000     -68.36680000
H      -44.98900000     -33.01380000     -67.65470000
H      -43.86300000     -34.23910000     -68.09730000
C      -45.93590000     -34.24420000     -73.70860000
H      -45.28730000     -34.44930000     -74.52210000
H      -45.70120000     -34.84980000     -72.84450000
C      -45.72710000     -32.82650000     -73.22920000
H      -46.18680000     -32.15130000     -73.96160000
H      -46.29800000     -32.67850000     -72.32750000
C      -44.86100000     -33.50310000     -69.83910000
H      -45.50640000     -32.65700000     -70.05360000
H      -45.26100000     -34.33720000     -70.34120000
C      -43.54470000     -33.13620000     -70.46710000
C      -42.37010000     -33.26400000     -69.84840000
C      -43.38550000     -32.73870000     -71.87870000
H      -42.16700000     -33.66230000     -68.91000000
C      -42.10390000     -32.36800000     -72.12690000
C      -44.22620000     -32.43660000     -73.06390000
C      -43.52390000     -31.78180000     -74.03960000
S      -40.99190000     -32.78850000     -70.80940000
S      -41.76330000     -31.63320000     -73.60240000
H      -43.87080000     -31.50800000     -74.95730000
