40
Properties=species:S:1:pos:R:3 #=T CELL(abcABC):=T 1.889726e+02=T 90.00000=T Traj:=T positionsangstrom=T Step:=T 0=T Bead:=T pbc="F F F"
C      -49.07640000     -32.94080000     -71.54560000
C      -48.42360000     -34.25380000     -71.50090000
C      -47.88160000     -34.67010000     -70.24270000
C      -47.91690000     -33.83300000     -69.13040000
C      -48.48330000     -32.54920000     -69.24070000
C      -49.06440000     -32.09970000     -70.45960000
H      -49.56130000     -32.64760000     -72.36400000
H      -47.34780000     -35.68430000     -70.19660000
H      -48.41160000     -31.82900000     -68.50310000
H      -49.37930000     -31.10250000     -70.68060000
C      -47.28580000     -34.23620000     -67.83360000
H      -48.03950000     -34.62730000     -67.12370000
H      -47.04520000     -33.30460000     -67.30060000
C      -48.49630000     -35.19920000     -72.65260000
H      -47.84510000     -36.15000000     -72.45360000
H      -49.55740000     -35.48330000     -72.88270000
S      -45.95320000     -35.46770000     -67.90830000
S      -47.81350000     -34.47750000     -74.26210000
C      -44.63320000     -34.38790000     -68.63150000
H      -44.64890000     -33.51440000     -67.97500000
H      -43.63450000     -34.91540000     -68.39720000
C      -45.99280000     -34.15270000     -73.97480000
H      -45.47030000     -34.09980000     -74.96460000
H      -45.56240000     -35.07340000     -73.44030000
C      -45.63020000     -32.89930000     -73.13130000
H      -46.11800000     -32.07070000     -73.52000000
H      -45.97960000     -32.96950000     -72.12110000
C      -44.71530000     -33.83020000     -70.05810000
H      -45.51540000     -33.03880000     -70.04420000
H      -44.91160000     -34.59670000     -70.78840000
C      -43.46590000     -33.05390000     -70.50980000
C      -42.26550000     -32.89770000     -69.79350000
C      -43.31800000     -32.60620000     -71.91990000
H      -42.04500000     -33.32280000     -68.75080000
C      -42.02420000     -32.03820000     -72.14220000
C      -44.14550000     -32.60230000     -73.03120000
C      -43.49140000     -32.01400000     -74.14810000
S      -41.00020000     -32.10590000     -70.72560000
S      -41.81340000     -31.52940000     -73.79500000
H      -43.85730000     -31.94480000     -75.24330000
