40
Properties=species:S:1:pos:R:3 #=T CELL(abcABC):=T 1.889726e+02=T 90.00000=T Traj:=T positionsangstrom=T Step:=T 0=T Bead:=T pbc="F F F"
C      -48.65260000     -32.70370000     -71.72110000
C      -48.58020000     -34.09460000     -71.57770000
C      -48.19370000     -34.60970000     -70.30780000
C      -48.16960000     -33.71770000     -69.20560000
C      -48.39570000     -32.35550000     -69.33790000
C      -48.55970000     -31.82890000     -70.63830000
H      -48.80360000     -32.25520000     -72.73650000
H      -47.88570000     -35.69070000     -70.27620000
H      -48.17690000     -31.59040000     -68.49770000
H      -48.56130000     -30.77940000     -70.81310000
C      -47.85240000     -34.32570000     -67.86910000
H      -48.47220000     -35.18300000     -67.60760000
H      -47.92960000     -33.61260000     -66.99210000
C      -48.60450000     -34.97430000     -72.82570000
H      -48.45670000     -36.07800000     -72.65350000
H      -49.59160000     -34.87150000     -73.20910000
S      -46.12470000     -35.05260000     -67.84430000
S      -47.49460000     -34.53330000     -74.25260000
C      -44.98420000     -33.67860000     -68.57850000
H      -45.48020000     -32.79990000     -68.24200000
H      -43.97930000     -33.83840000     -68.08120000
C      -45.92790000     -34.20210000     -73.33430000
H      -45.14130000     -34.64730000     -73.86050000
H      -45.84640000     -34.77700000     -72.33960000
C      -45.63070000     -32.75640000     -73.15110000
H      -45.94590000     -32.16540000     -74.05010000
H      -46.18490000     -32.33700000     -72.23410000
C      -44.82350000     -33.69590000     -70.06290000
H      -45.51760000     -32.98280000     -70.60460000
H      -45.21590000     -34.65260000     -70.41150000
C      -43.44450000     -33.37580000     -70.57590000
C      -42.27550000     -33.56930000     -69.97880000
C      -43.28220000     -32.77570000     -71.90130000
H      -42.21090000     -34.04440000     -69.00320000
C      -41.96420000     -32.41350000     -72.11810000
C      -44.14290000     -32.47600000     -73.07280000
C      -43.45150000     -31.88780000     -74.08880000
S      -40.86640000     -32.79720000     -70.74540000
S      -41.79180000     -31.59220000     -73.70550000
H      -43.71640000     -31.31630000     -74.93880000
