40
Properties=species:S:1:pos:R:3 #=T CELL(abcABC):=T 1.889726e+02=T 90.00000=T Traj:=T positionsangstrom=T Step:=T 0=T Bead:=T pbc="F F F"
C      -48.92020000     -32.54770000     -71.97080000
C      -48.51830000     -33.84310000     -71.62520000
C      -48.11230000     -34.09150000     -70.31420000
C      -48.08550000     -33.12700000     -69.32370000
C      -48.62730000     -31.85560000     -69.61740000
C      -49.17290000     -31.63120000     -70.92230000
H      -49.29250000     -32.28220000     -72.85320000
H      -47.72230000     -35.01390000     -69.99130000
H      -48.72740000     -31.18880000     -68.81830000
H      -49.56450000     -30.60460000     -71.02430000
C      -47.70960000     -33.52840000     -67.95460000
H      -48.44970000     -34.17080000     -67.49840000
H      -47.53800000     -32.67860000     -67.36390000
C      -48.53870000     -34.98420000     -72.61770000
H      -48.22470000     -35.95190000     -72.16030000
H      -49.52130000     -35.31900000     -72.98500000
S      -46.18610000     -34.60140000     -67.71290000
S      -47.71080000     -34.52830000     -74.20160000
C      -44.89790000     -33.66900000     -68.59040000
H      -45.18260000     -32.64730000     -68.78640000
H      -43.94630000     -33.74420000     -68.04340000
C      -45.94060000     -34.45050000     -73.66360000
H      -45.34520000     -34.47760000     -74.59300000
H      -45.59220000     -35.28770000     -73.06830000
C      -45.55470000     -33.05050000     -73.06610000
H      -46.16190000     -32.26680000     -73.69490000
H      -45.90230000     -32.84950000     -72.08070000
C      -44.46550000     -34.48940000     -69.95310000
H      -45.35880000     -34.60000000     -70.57390000
H      -44.22570000     -35.49840000     -69.64240000
C      -43.31560000     -33.82310000     -70.65600000
C      -42.16120000     -33.92950000     -69.89710000
C      -43.18990000     -33.07740000     -71.88790000
H      -42.02130000     -34.54180000     -69.01230000
C      -41.87670000     -32.63540000     -72.05320000
C      -44.01580000     -32.77760000     -73.04600000
C      -43.41630000     -31.92490000     -73.93830000
S      -40.81960000     -33.13710000     -70.78740000
S      -41.72710000     -31.68300000     -73.55170000
H      -44.01970000     -31.37590000     -74.75890000
