40
Properties=species:S:1:pos:R:3 #=T CELL(abcABC):=T 1.889726e+02=T 90.00000=T Traj:=T positionsangstrom=T Step:=T 0=T Bead:=T pbc="F F F"
C      -48.65550000     -32.82460000     -71.45370000
C      -48.67750000     -34.20610000     -71.36080000
C      -48.10690000     -34.77120000     -70.21750000
C      -47.71490000     -34.03120000     -69.11220000
C      -47.94980000     -32.67290000     -69.13920000
C      -48.37930000     -32.04910000     -70.28700000
H      -49.09850000     -32.31370000     -72.24230000
H      -48.07010000     -35.83920000     -70.16120000
H      -47.83720000     -32.06710000     -68.21990000
H      -48.52570000     -30.99550000     -70.48240000
C      -47.18560000     -34.84030000     -67.93800000
H      -47.96080000     -35.61820000     -67.90470000
H      -47.15260000     -34.27280000     -67.04990000
C      -48.97110000     -35.08350000     -72.55620000
H      -48.90860000     -36.13320000     -72.30140000
H      -50.00490000     -34.95470000     -73.04380000
S      -45.54370000     -35.65350000     -68.21690000
S      -47.82730000     -34.64600000     -73.98660000
C      -44.36990000     -34.22600000     -68.50380000
H      -44.35560000     -33.66150000     -67.53410000
H      -43.43780000     -34.64320000     -68.52420000
C      -46.26500000     -34.26700000     -73.05380000
H      -45.47730000     -34.87660000     -73.51240000
H      -46.31440000     -34.65050000     -72.01360000
C      -45.89870000     -32.76400000     -73.14580000
H      -46.31970000     -32.30320000     -73.99150000
H      -46.46860000     -32.34130000     -72.27960000
C      -44.67420000     -33.36790000     -69.79070000
H      -45.18990000     -32.37720000     -69.46630000
H      -45.37070000     -33.90030000     -70.50470000
C      -43.46620000     -32.95330000     -70.59130000
C      -42.20310000     -32.98120000     -70.05790000
C      -43.48100000     -32.43190000     -71.92590000
H      -42.04730000     -33.26090000     -68.97180000
C      -42.20320000     -31.95950000     -72.25360000
C      -44.43120000     -32.28400000     -73.08130000
C      -43.77740000     -31.84590000     -74.23450000
S      -40.96160000     -32.28950000     -71.10450000
S      -42.15480000     -31.27370000     -73.95120000
H      -44.15960000     -31.58860000     -75.28290000
