40
Properties=species:S:1:pos:R:3 #=T CELL(abcABC):=T 1.889726e+02=T 90.00000=T Traj:=T positionsangstrom=T Step:=T 0=T Bead:=T pbc="F F F"
C      -47.05790000     -34.18300000     -68.52580000
C      -47.22490000     -32.89010000     -68.89400000
C      -47.88840000     -32.60660000     -70.07700000
C      -48.36810000     -33.61900000     -70.94540000
C      -48.19050000     -35.01360000     -70.53830000
C      -47.41830000     -35.24320000     -69.38170000
H      -46.51070000     -34.31410000     -67.59800000
H      -48.12320000     -31.55560000     -70.28310000
H      -48.47670000     -35.74220000     -71.23600000
H      -47.16750000     -36.23640000     -69.00200000
C      -49.21560000     -33.35930000     -72.15060000
H      -50.01290000     -32.71360000     -71.84900000
H      -49.51000000     -34.25250000     -72.57670000
C      -46.67070000     -31.83070000     -67.99710000
H      -47.33920000     -30.89740000     -68.17580000
H      -46.75460000     -32.16810000     -66.97750000
S      -48.16300000     -32.36320000     -73.35370000
S      -44.80390000     -31.53710000     -68.09810000
C      -46.75100000     -33.52490000     -73.42160000
H      -46.49570000     -33.85930000     -72.42490000
H      -47.01890000     -34.35090000     -74.07580000
C      -44.50800000     -30.75140000     -69.78200000
H      -43.43320000     -30.61440000     -69.74360000
H      -44.98290000     -29.82360000     -69.84900000
C      -44.76530000     -31.72720000     -70.96200000
H      -45.70760000     -32.17750000     -70.79140000
H      -44.90470000     -31.16810000     -71.92920000
C      -45.52770000     -32.86390000     -74.09640000
H      -45.48890000     -31.78530000     -73.84980000
H      -45.67240000     -32.83000000     -75.13550000
C      -44.35180000     -33.62310000     -73.67600000
C      -43.83850000     -34.51540000     -74.54690000
C      -43.67490000     -33.66420000     -72.39830000
H      -44.27400000     -34.68410000     -75.48670000
C      -42.61910000     -34.55690000     -72.36110000
C      -43.75270000     -32.90130000     -71.17680000
C      -42.88750000     -33.41040000     -70.22420000
S      -42.49340000     -35.47210000     -73.80050000
S      -41.72940000     -34.64500000     -70.87790000
H      -42.73170000     -33.06300000     -69.20360000
