40
Properties=species:S:1:pos:R:3 #=T CELL(abcABC):=T 1.889726e+02=T 90.00000=T Traj:=T positionsangstrom=T Step:=T 0=T Bead:=T pbc="F F F"
C      -49.18210000     -32.87580000     -71.43440000
C      -48.53220000     -34.12190000     -71.46680000
C      -47.88910000     -34.62750000     -70.29770000
C      -47.87450000     -33.84090000     -69.18680000
C      -48.44900000     -32.51970000     -69.15870000
C      -49.07950000     -32.07760000     -70.29740000
H      -49.59520000     -32.43890000     -72.24530000
H      -47.37070000     -35.58470000     -70.43470000
H      -48.42530000     -31.83360000     -68.28210000
H      -49.59560000     -31.14870000     -70.32170000
C      -47.19490000     -34.27040000     -67.84580000
H      -47.83570000     -34.85050000     -67.29190000
H      -46.82540000     -33.31660000     -67.39050000
C      -48.50990000     -35.04610000     -72.62470000
H      -47.93600000     -35.94640000     -72.39300000
H      -49.46340000     -35.47600000     -72.74040000
S      -45.71740000     -35.42180000     -68.01180000
S      -47.83220000     -34.50750000     -74.20910000
C      -44.30720000     -34.40370000     -68.59870000
H      -43.90110000     -33.71420000     -67.84880000
H      -43.51870000     -35.10860000     -68.67640000
C      -46.01310000     -34.20410000     -74.05190000
H      -45.67130000     -33.93980000     -75.01660000
H      -45.48580000     -35.11700000     -73.78750000
C      -45.64540000     -33.07120000     -73.13890000
H      -46.11110000     -32.11890000     -73.37120000
H      -46.00110000     -33.33970000     -72.07970000
C      -44.68850000     -33.87900000     -70.01340000
H      -45.63490000     -33.31190000     -69.91290000
H      -44.91950000     -34.78150000     -70.68000000
C      -43.50240000     -33.13540000     -70.59160000
C      -42.40970000     -32.78540000     -69.80430000
C      -43.32030000     -32.70470000     -71.95440000
H      -42.28200000     -33.35760000     -68.83150000
C      -42.08880000     -32.19740000     -72.16230000
C      -44.20190000     -32.68440000     -73.11030000
C      -43.50880000     -31.98750000     -74.10750000
S      -41.12520000     -32.09080000     -70.76960000
S      -41.88980000     -31.47650000     -73.74730000
H      -43.82440000     -31.65100000     -75.15820000
