40
Properties=species:S:1:pos:R:3 #=T CELL(abcABC):=T 1.889726e+02=T 90.00000=T Traj:=T positionsangstrom=T Step:=T 0=T Bead:=T pbc="F F F"
C      -46.10500000     -32.09790000     -73.76150000
C      -46.86670000     -33.25330000     -73.82200000
C      -47.62970000     -33.48400000     -72.63570000
C      -47.60160000     -32.61360000     -71.50420000
C      -46.83620000     -31.45750000     -71.57550000
C      -46.08340000     -31.22690000     -72.70300000
H      -45.36450000     -32.05950000     -74.59270000
H      -48.18310000     -34.39250000     -72.56980000
H      -46.86960000     -30.62130000     -70.92260000
H      -45.35420000     -30.42570000     -72.65610000
C      -48.63370000     -32.93220000     -70.44540000
H      -49.31020000     -33.72970000     -70.75670000
H      -49.17670000     -32.08070000     -70.29340000
C      -46.54980000     -34.36760000     -74.78550000
H      -47.41370000     -35.07610000     -74.98570000
H      -46.40550000     -33.90360000     -75.76800000
S      -47.76760000     -33.27300000     -68.82680000
S      -44.99930000     -35.24700000     -74.21790000
C      -46.81220000     -34.81870000     -69.30280000
H      -47.38740000     -35.73670000     -69.19090000
H      -46.57850000     -34.52540000     -70.32610000
C      -45.34310000     -35.95170000     -72.54910000
H      -45.83090000     -36.94820000     -72.68150000
H      -46.22280000     -35.46460000     -72.10290000
C      -44.05650000     -35.91510000     -71.58290000
H      -44.34140000     -36.44710000     -70.68760000
H      -43.30230000     -36.55490000     -72.08760000
C      -45.44670000     -34.81200000     -68.64500000
H      -45.02240000     -35.78510000     -68.91190000
H      -45.52020000     -34.90460000     -67.50710000
C      -44.67600000     -33.63290000     -69.13540000
C      -44.74880000     -32.43800000     -68.50390000
C      -43.90420000     -33.60290000     -70.32950000
H      -45.34860000     -32.15860000     -67.65590000
C      -43.24410000     -32.38690000     -70.51810000
C      -43.56590000     -34.49640000     -71.42340000
C      -42.70260000     -33.95930000     -72.31400000
S      -43.74010000     -31.21430000     -69.28650000
S      -42.29120000     -32.37620000     -71.94800000
H      -42.33160000     -34.40350000     -73.16210000
