40
Properties=species:S:1:pos:R:3 #=T CELL(abcABC):=T 1.889726e+02=T 90.00000=T Traj:=T positionsangstrom=T Step:=T 0=T Bead:=T pbc="F F F"
C      -46.20050000     -33.46960000     -68.28760000
C      -46.86110000     -32.36520000     -68.77350000
C      -47.94270000     -32.53850000     -69.65350000
C      -48.27710000     -33.84860000     -70.13010000
C      -47.59230000     -34.94250000     -69.65560000
C      -46.50070000     -34.77880000     -68.75620000
H      -45.40380000     -33.32460000     -67.50760000
H      -48.62400000     -31.68150000     -69.84350000
H      -47.92330000     -35.91790000     -70.09330000
H      -45.98990000     -35.60470000     -68.30310000
C      -49.35930000     -34.15900000     -71.19550000
H      -50.37230000     -33.73130000     -70.90180000
H      -49.57370000     -35.21370000     -71.21110000
C      -46.43130000     -30.96860000     -68.57980000
H      -46.96890000     -30.20420000     -69.26110000
H      -46.63810000     -30.67460000     -67.53870000
S      -48.81040000     -33.68470000     -72.85340000
S      -44.63040000     -30.80650000     -68.82930000
C      -47.14950000     -34.35050000     -73.10600000
H      -46.60210000     -34.61240000     -72.19850000
H      -47.23400000     -35.25840000     -73.67400000
C      -44.41830000     -30.37900000     -70.58790000
H      -43.29250000     -30.31510000     -70.68740000
H      -44.82440000     -29.43920000     -70.87410000
C      -44.79080000     -31.59000000     -71.53330000
H      -45.72100000     -32.02160000     -71.19720000
H      -45.07580000     -31.35880000     -72.57650000
C      -46.15550000     -33.45750000     -73.98000000
H      -46.13330000     -32.37760000     -73.86800000
H      -46.33640000     -33.60180000     -75.04850000
C      -44.71800000     -34.03450000     -73.62470000
C      -44.16860000     -35.04250000     -74.39430000
C      -43.84510000     -33.70500000     -72.53470000
H      -44.52160000     -35.58630000     -75.28980000
C      -42.68040000     -34.52210000     -72.51630000
C      -43.77160000     -32.63910000     -71.57750000
C      -42.58030000     -32.70670000     -70.80820000
S      -42.66590000     -35.65490000     -73.77360000
S      -41.58720000     -34.14230000     -71.22700000
H      -42.43760000     -32.06470000     -69.92090000
