40
Properties=species:S:1:pos:R:3 #=T CELL(abcABC):=T 1.889726e+02=T 90.00000=T Traj:=T positionsangstrom=T Step:=T 0=T Bead:=T pbc="F F F"
C      -43.68290000     -33.68380000     -69.25950000
C      -44.84130000     -33.94790000     -68.54950000
C      -45.58690000     -35.09410000     -68.84940000
C      -45.15680000     -36.07210000     -69.76570000
C      -43.96020000     -35.79300000     -70.51430000
C      -43.33020000     -34.55710000     -70.32820000
H      -43.14370000     -32.74290000     -69.10060000
H      -46.47260000     -35.31290000     -68.26830000
H      -43.59600000     -36.44700000     -71.33300000
H      -42.40200000     -34.45490000     -70.97270000
C      -45.91300000     -37.26530000     -70.09990000
H      -46.43420000     -37.63140000     -69.25310000
H      -45.31820000     -38.04250000     -70.54970000
C      -45.30340000     -33.14500000     -67.39590000
H      -45.83040000     -33.67280000     -66.59870000
H      -44.52070000     -32.53200000     -67.05460000
S      -47.27620000     -36.94020000     -71.33590000
S      -46.49750000     -31.85960000     -67.84630000
C      -46.59510000     -35.86670000     -72.69750000
H      -45.55310000     -36.13720000     -73.03220000
H      -47.28550000     -36.03600000     -73.52020000
C      -45.79800000     -30.75900000     -69.21790000
H      -44.67140000     -30.71050000     -69.20610000
H      -46.07410000     -29.75150000     -69.01090000
C      -46.38090000     -31.34480000     -70.57780000
H      -46.53630000     -32.43910000     -70.60690000
H      -47.39520000     -30.90430000     -70.65200000
C      -46.72820000     -34.34790000     -72.29040000
H      -46.32710000     -34.29150000     -71.27360000
H      -47.74730000     -34.02490000     -72.29970000
C      -45.70420000     -33.54040000     -73.10530000
C      -45.26840000     -34.02280000     -74.33250000
C      -45.33470000     -32.08180000     -72.84610000
H      -45.56640000     -35.02740000     -74.75810000
C      -44.49260000     -31.72180000     -73.91690000
C      -45.44120000     -31.18760000     -71.74080000
C      -44.59420000     -30.11160000     -71.97520000
S      -44.10480000     -32.92080000     -75.13400000
S      -43.76160000     -30.16360000     -73.55290000
H      -44.44650000     -29.19940000     -71.37450000
