40
Properties=species:S:1:pos:R:3 #=T CELL(abcABC):=T 1.889726e+02=T 90.00000=T Traj:=T positionsangstrom=T Step:=T 0=T Bead:=T pbc="F F F"
C      -45.65750000     -32.89910000     -73.87520000
C      -46.36150000     -34.07470000     -73.52190000
C      -47.43240000     -33.99830000     -72.59570000
C      -47.79540000     -32.72220000     -72.06960000
C      -46.93260000     -31.60660000     -72.28840000
C      -45.87860000     -31.71810000     -73.19130000
H      -44.79860000     -33.09610000     -74.46560000
H      -48.14490000     -34.77780000     -72.21390000
H      -47.22190000     -30.66900000     -71.91460000
H      -45.22520000     -30.84780000     -73.29710000
C      -48.91340000     -32.60660000     -71.11260000
H      -49.73660000     -33.21350000     -71.32190000
H      -49.31140000     -31.59480000     -71.15140000
C      -45.99200000     -35.40690000     -74.00240000
H      -46.76620000     -36.15120000     -73.78880000
H      -45.95380000     -35.45770000     -75.06430000
S      -48.32300000     -32.62630000     -69.40540000
S      -44.44040000     -36.00750000     -73.34590000
C      -47.47460000     -34.21390000     -69.20650000
H      -47.96450000     -34.73760000     -68.45750000
H      -47.71410000     -34.83780000     -70.06850000
C      -44.83220000     -36.26920000     -71.52460000
H      -45.04030000     -37.34360000     -71.33950000
H      -45.69290000     -35.59110000     -71.28090000
C      -43.64870000     -35.88860000     -70.71080000
H      -43.80640000     -36.06610000     -69.69240000
H      -42.77840000     -36.48500000     -70.96170000
C      -45.97250000     -34.25080000     -68.92920000
H      -45.59630000     -35.19460000     -69.32540000
H      -45.88580000     -34.35390000     -67.83250000
C      -45.11160000     -33.15320000     -69.44980000
C      -45.23390000     -31.83100000     -69.06380000
C      -44.03310000     -33.31470000     -70.36730000
H      -45.77960000     -31.45220000     -68.25350000
C      -43.47960000     -32.10830000     -70.76020000
C      -43.31030000     -34.43310000     -70.94530000
C      -42.23680000     -34.01730000     -71.69120000
S      -44.19910000     -30.78370000     -70.00110000
S      -42.05380000     -32.25190000     -71.74040000
H      -41.67690000     -34.67870000     -72.39100000
