40
Properties=species:S:1:pos:R:3 #=T CELL(abcABC):=T 1.889726e+02=T 90.00000=T Traj:=T positionsangstrom=T Step:=T 0=T Bead:=T pbc="F F F"
C      -47.15440000     -34.24790000     -68.56640000
C      -47.39370000     -32.89430000     -68.90900000
C      -47.99790000     -32.59110000     -70.06090000
C      -48.62220000     -33.60160000     -70.90340000
C      -48.45880000     -34.95470000     -70.49010000
C      -47.71560000     -35.32580000     -69.33300000
H      -46.52970000     -34.46780000     -67.74520000
H      -47.93420000     -31.57870000     -70.50960000
H      -48.88280000     -35.74630000     -71.01810000
H      -47.56810000     -36.37130000     -69.05160000
C      -49.23990000     -33.22000000     -72.23640000
H      -50.15880000     -32.63020000     -72.18300000
H      -49.60990000     -34.13000000     -72.81940000
C      -46.72330000     -31.76390000     -68.16250000
H      -46.98830000     -30.82420000     -68.61830000
H      -46.94350000     -31.73270000     -67.09160000
S      -48.19730000     -32.15860000     -73.28990000
S      -44.88000000     -31.89880000     -68.13220000
C      -46.77150000     -33.26680000     -73.63930000
H      -46.66240000     -34.01290000     -72.82960000
H      -47.25910000     -33.92440000     -74.44730000
C      -44.34360000     -30.96400000     -69.68360000
H      -43.28040000     -30.61310000     -69.65560000
H      -45.00170000     -30.02390000     -69.72550000
C      -44.55940000     -31.67260000     -71.04790000
H      -45.56410000     -32.18840000     -71.05800000
H      -44.55520000     -30.83090000     -71.74060000
C      -45.39430000     -32.65400000     -73.94110000
H      -45.22580000     -31.74620000     -73.27580000
H      -45.25300000     -32.30820000     -75.01230000
C      -44.22180000     -33.61600000     -73.63850000
C      -43.71300000     -34.57070000     -74.47290000
C      -43.51220000     -33.64650000     -72.40260000
H      -44.01450000     -34.53340000     -75.52420000
C      -42.59820000     -34.67410000     -72.31420000
C      -43.56390000     -32.84820000     -71.23290000
C      -42.67110000     -33.29950000     -70.27620000
S      -42.38030000     -35.47430000     -73.83830000
S      -41.77360000     -34.71450000     -70.76880000
H      -42.52330000     -32.92790000     -69.23820000
