40
Properties=species:S:1:pos:R:3 #=T CELL(abcABC):=T 1.889726e+02=T 90.00000=T Traj:=T positionsangstrom=T Step:=T 0=T Bead:=T pbc="F F F"
C      -44.81990000     -34.92200000     -67.94400000
C      -46.08570000     -35.03150000     -68.39160000
C      -46.42020000     -35.92090000     -69.46970000
C      -45.32650000     -36.60650000     -70.11060000
C      -44.07040000     -36.47500000     -69.54230000
C      -43.79590000     -35.73070000     -68.41450000
H      -44.56680000     -34.16300000     -67.13610000
H      -47.37110000     -35.85620000     -70.02720000
H      -43.18800000     -36.92560000     -69.90220000
H      -42.78910000     -35.78980000     -68.05170000
C      -45.48460000     -37.36970000     -71.44780000
H      -46.00920000     -38.40950000     -71.43890000
H      -44.52350000     -37.54880000     -71.93830000
C      -47.21560000     -34.32470000     -67.74910000
H      -47.92270000     -35.03810000     -67.39050000
H      -46.81950000     -33.86870000     -66.86610000
S      -46.41880000     -36.40310000     -72.76450000
S      -48.18260000     -33.11530000     -68.78230000
C      -45.25910000     -35.04040000     -73.13380000
H      -44.58150000     -34.67420000     -72.31560000
H      -44.56130000     -35.42860000     -73.92060000
C      -46.98030000     -31.83570000     -69.43000000
H      -46.37550000     -31.41340000     -68.55010000
H      -47.67660000     -31.07050000     -69.77120000
C      -46.12610000     -32.37570000     -70.55670000
H      -45.70700000     -33.28220000     -70.22510000
H      -46.73860000     -32.74330000     -71.39500000
C      -45.99600000     -33.78150000     -73.76400000
H      -46.94940000     -33.53990000     -73.36580000
H      -46.33170000     -34.06930000     -74.79390000
C      -45.06630000     -32.61640000     -73.83870000
C      -44.32270000     -32.32070000     -74.95130000
C      -44.73110000     -31.73230000     -72.69300000
H      -44.37530000     -32.92890000     -75.82060000
C      -43.87700000     -30.68540000     -73.08910000
C      -45.04340000     -31.50120000     -71.28490000
C      -44.35510000     -30.49270000     -70.59810000
S      -43.39980000     -30.86360000     -74.81710000
S      -43.26720000     -29.68010000     -71.78710000
H      -44.36350000     -30.28210000     -69.53990000
