40
Properties=species:S:1:pos:R:3 #=T CELL(abcABC):=T 1.889726e+02=T 90.00000=T Traj:=T positionsangstrom=T Step:=T 0=T Bead:=T pbc="F F F"
C      -45.43320000     -32.87610000     -73.58850000
C      -46.16980000     -34.02860000     -73.32560000
C      -47.37730000     -33.96810000     -72.55500000
C      -47.80650000     -32.70710000     -72.07100000
C      -47.21310000     -31.56820000     -72.61290000
C      -46.02600000     -31.66440000     -73.29970000
H      -44.51450000     -32.82610000     -74.10850000
H      -47.86200000     -34.89650000     -72.19800000
H      -47.69010000     -30.64030000     -72.27040000
H      -45.44440000     -30.77570000     -73.34570000
C      -48.92040000     -32.54990000     -71.07490000
H      -49.69090000     -33.39970000     -71.16090000
H      -49.47620000     -31.59320000     -71.22220000
C      -45.82930000     -35.37260000     -73.92760000
H      -46.67650000     -36.06050000     -73.78510000
H      -45.54840000     -35.29870000     -74.99090000
S      -48.48950000     -32.58340000     -69.21950000
S      -44.28840000     -36.18440000     -73.32150000
C      -47.54190000     -34.14770000     -69.26940000
H      -48.03940000     -34.84300000     -68.53000000
H      -47.51450000     -34.58090000     -70.27260000
C      -44.68040000     -36.37050000     -71.51560000
H      -44.94970000     -37.44290000     -71.21440000
H      -45.53630000     -35.83360000     -71.20730000
C      -43.59100000     -35.84880000     -70.59130000
H      -43.85870000     -36.20600000     -69.55390000
H      -42.63450000     -36.49100000     -70.68020000
C      -46.01870000     -34.10020000     -68.80990000
H      -45.66930000     -35.11850000     -68.98970000
H      -45.94850000     -33.89450000     -67.70320000
C      -45.13600000     -33.09320000     -69.48950000
C      -45.38970000     -31.76510000     -69.27550000
C      -44.04410000     -33.31350000     -70.39110000
H      -46.07800000     -31.38400000     -68.58240000
C      -43.41170000     -32.12910000     -70.77060000
C      -43.26160000     -34.41970000     -70.88110000
C      -42.26540000     -34.05230000     -71.74540000
S      -44.13500000     -30.76580000     -69.99500000
S      -42.18060000     -32.35540000     -72.01710000
H      -41.66220000     -34.68220000     -72.40730000
