40
Properties=species:S:1:pos:R:3 #=T CELL(abcABC):=T 1.889726e+02=T 90.00000=T Traj:=T positionsangstrom=T Step:=T 0=T Bead:=T pbc="F F F"
C      -47.79780000     -34.11770000     -68.96740000
C      -47.46280000     -32.79360000     -69.12610000
C      -47.96820000     -32.16460000     -70.26720000
C      -48.86120000     -32.77710000     -71.12320000
C      -49.23250000     -34.14610000     -70.89450000
C      -48.69440000     -34.78150000     -69.81430000
H      -47.54980000     -34.64180000     -68.03260000
H      -47.73670000     -31.11380000     -70.46940000
H      -49.87340000     -34.55390000     -71.76390000
H      -48.96920000     -35.77920000     -69.63480000
C      -49.30080000     -32.01490000     -72.33840000
H      -49.66230000     -31.06130000     -71.97480000
H      -50.09000000     -32.48740000     -72.87500000
C      -46.59640000     -32.11440000     -68.02230000
H      -46.49410000     -31.03130000     -68.01510000
H      -47.03680000     -32.34190000     -67.02280000
S      -47.94680000     -31.60970000     -73.50790000
S      -44.85500000     -32.80420000     -67.99330000
C      -46.96150000     -33.22340000     -73.58340000
H      -47.07670000     -33.91450000     -72.69280000
H      -47.17120000     -33.75240000     -74.50340000
C      -44.14640000     -31.48530000     -69.13140000
H      -43.19920000     -31.18940000     -68.81600000
H      -44.64090000     -30.52850000     -69.13450000
C      -44.08330000     -31.86110000     -70.56940000
H      -45.12720000     -32.03460000     -70.78660000
H      -43.78680000     -30.93540000     -71.10840000
C      -45.44290000     -32.74610000     -73.51520000
H      -45.37360000     -32.14360000     -72.60200000
H      -45.23690000     -32.05390000     -74.46220000
C      -44.24140000     -33.73660000     -73.32410000
C      -43.85030000     -34.53600000     -74.40510000
C      -43.33280000     -33.79060000     -72.19150000
H      -44.53540000     -34.80930000     -75.22570000
C      -42.41510000     -34.82330000     -72.33870000
C      -43.16390000     -33.06220000     -70.97580000
C      -42.21420000     -33.61210000     -70.17730000
S      -42.45220000     -35.61510000     -73.88950000
S      -41.51520000     -35.07570000     -70.94110000
H      -41.85120000     -33.03460000     -69.30020000
