40
Properties=species:S:1:pos:R:3 #=T CELL(abcABC):=T 1.889726e+02=T 90.00000=T Traj:=T positionsangstrom=T Step:=T 0=T Bead:=T pbc="F F F"
C      -47.83630000     -34.07460000     -69.01260000
C      -47.50300000     -32.70860000     -69.06940000
C      -47.93520000     -31.94920000     -70.12020000
C      -48.81140000     -32.56390000     -71.18310000
C      -49.19920000     -33.89790000     -70.97430000
C      -48.71510000     -34.65780000     -69.92760000
H      -47.38190000     -34.78990000     -68.20900000
H      -47.81950000     -30.89710000     -70.16640000
H      -49.95730000     -34.35980000     -71.74260000
H      -48.97650000     -35.66390000     -69.77870000
C      -49.26340000     -31.93250000     -72.44480000
H      -49.64970000     -30.84980000     -72.32850000
H      -49.94710000     -32.63630000     -72.95180000
C      -46.61660000     -31.98060000     -68.06240000
H      -46.46440000     -30.94790000     -68.36470000
H      -47.09630000     -32.07630000     -67.11470000
S      -47.76320000     -31.57400000     -73.63080000
S      -44.95540000     -32.85680000     -67.97580000
C      -46.64650000     -33.02250000     -73.52980000
H      -46.75960000     -33.63450000     -72.67390000
H      -46.88960000     -33.68240000     -74.40500000
C      -43.89510000     -31.68360000     -68.97160000
H      -42.86070000     -31.81490000     -68.73170000
H      -44.30940000     -30.68220000     -68.70210000
C      -44.11230000     -32.01350000     -70.43220000
H      -45.18490000     -32.16330000     -70.65080000
H      -43.82720000     -31.17060000     -71.14240000
C      -45.19360000     -32.59390000     -73.67380000
H      -45.00880000     -31.70330000     -73.16230000
H      -45.00890000     -32.26370000     -74.67990000
C      -44.24190000     -33.72250000     -73.38750000
C      -43.81160000     -34.60060000     -74.36620000
C      -43.52490000     -33.95300000     -72.12430000
H      -44.26390000     -34.56490000     -75.42440000
C      -42.58730000     -34.91520000     -72.27370000
C      -43.44080000     -33.35080000     -70.79820000
C      -42.45050000     -33.89080000     -70.02590000
S      -42.57330000     -35.66800000     -73.94310000
S      -41.52820000     -35.10260000     -70.90120000
H      -42.16620000     -33.70990000     -69.02040000
