40
Properties=species:S:1:pos:R:3 #=T CELL(abcABC):=T 1.889726e+02=T 90.00000=T Traj:=T positionsangstrom=T Step:=T 0=T Bead:=T pbc="F F F"
C      -48.36420000     -33.76490000     -69.48880000
C      -47.77900000     -32.47120000     -69.35990000
C      -47.74170000     -31.64680000     -70.49990000
C      -48.21490000     -32.09140000     -71.74440000
C      -48.82550000     -33.35500000     -71.81730000
C      -48.88850000     -34.16390000     -70.70970000
H      -48.47380000     -34.48350000     -68.68510000
H      -47.29110000     -30.69790000     -70.42570000
H      -49.19110000     -33.60170000     -72.81860000
H      -49.38300000     -35.12560000     -70.84610000
C      -48.22230000     -31.09100000     -72.86460000
H      -48.71140000     -30.10270000     -72.59960000
H      -48.75880000     -31.43960000     -73.75660000
C      -47.27470000     -32.03970000     -68.09000000
H      -47.21200000     -30.96210000     -68.03460000
H      -47.93670000     -32.34200000     -67.32120000
S      -46.45740000     -30.54780000     -73.42620000
S      -45.52170000     -32.72980000     -67.71530000
C      -45.71830000     -32.23620000     -73.76180000
H      -46.22550000     -32.89270000     -72.97930000
H      -46.05600000     -32.52640000     -74.75000000
C      -44.37080000     -31.99900000     -68.90830000
H      -43.32000000     -32.00590000     -68.53620000
H      -44.51160000     -30.87180000     -68.91960000
C      -44.48600000     -32.58280000     -70.34270000
H      -45.49470000     -32.45460000     -70.71540000
H      -43.91640000     -31.80660000     -70.99000000
C      -44.05620000     -32.29330000     -73.63750000
H      -43.78720000     -31.53700000     -72.87460000
H      -43.68950000     -31.87100000     -74.62140000
C      -43.56220000     -33.66150000     -73.36210000
C      -43.11080000     -34.60200000     -74.27270000
C      -43.52830000     -34.25720000     -72.00580000
H      -43.00450000     -34.47670000     -75.38310000
C      -43.04200000     -35.59730000     -72.02150000
C      -43.85340000     -33.88990000     -70.62210000
C      -43.53520000     -34.83200000     -69.72490000
S      -42.62240000     -36.14820000     -73.67010000
S      -42.76880000     -36.23820000     -70.45550000
H      -43.52890000     -34.85320000     -68.61890000
