40
Properties=species:S:1:pos:R:3 #=T CELL(abcABC):=T 1.889726e+02=T 90.00000=T Traj:=T positionsangstrom=T Step:=T 0=T Bead:=T pbc="F F F"
C      -43.47450000     -36.41030000     -69.55060000
C      -44.08190000     -36.56390000     -70.81030000
C      -45.46360000     -36.61570000     -70.87230000
C      -46.29490000     -36.38740000     -69.73700000
C      -45.65290000     -35.95030000     -68.55740000
C      -44.26280000     -35.97020000     -68.46220000
H      -42.41990000     -36.48230000     -69.40610000
H      -45.93730000     -36.67820000     -71.82540000
H      -46.29830000     -35.69430000     -67.71800000
H      -43.76940000     -35.75610000     -67.54900000
C      -47.76940000     -36.36120000     -69.96490000
H      -48.37770000     -36.13090000     -69.02560000
H      -48.09160000     -37.32360000     -70.25080000
C      -43.17770000     -36.82070000     -72.01000000
H      -42.11610000     -36.60060000     -71.78510000
H      -43.24980000     -37.86040000     -72.42640000
S      -48.30460000     -35.18670000     -71.27760000
S      -43.53680000     -35.79470000     -73.51330000
C      -47.58020000     -33.54660000     -70.86600000
H      -48.13850000     -33.17750000     -69.97200000
H      -46.51850000     -33.63040000     -70.52160000
C      -43.12530000     -34.07470000     -72.90920000
H      -42.88660000     -33.53430000     -73.85750000
H      -42.33910000     -34.05860000     -72.19300000
C      -44.45690000     -33.45150000     -72.38220000
H      -45.24060000     -33.44260000     -73.12110000
H      -44.89350000     -34.01090000     -71.58900000
C      -47.70130000     -32.50420000     -71.98810000
H      -48.70240000     -32.10410000     -72.06870000
H      -47.66020000     -32.91880000     -73.03090000
C      -46.79840000     -31.23190000     -71.82980000
C      -47.42240000     -30.05890000     -71.48500000
C      -45.37770000     -31.14520000     -71.69000000
H      -48.39250000     -29.74720000     -71.57180000
C      -44.98920000     -29.84550000     -71.31230000
C      -44.24480000     -32.02160000     -71.84450000
C      -43.06850000     -31.35890000     -71.66790000
S      -46.31900000     -28.71740000     -71.19640000
S      -43.23520000     -29.66060000     -71.35440000
H      -42.16890000     -31.70580000     -72.04910000
