40
Properties=species:S:1:pos:R:3 #=T CELL(abcABC):=T 1.889726e+02=T 90.00000=T Traj:=T positionsangstrom=T Step:=T 0=T Bead:=T pbc="F F F"
C      -45.11160000     -35.76700000     -68.57160000
C      -46.43550000     -35.71300000     -69.07620000
C      -46.65120000     -36.27960000     -70.29160000
C      -45.56060000     -36.81050000     -71.05710000
C      -44.29510000     -36.84020000     -70.56390000
C      -44.07490000     -36.29670000     -69.30590000
H      -44.87820000     -35.24610000     -67.63880000
H      -47.70800000     -36.38120000     -70.63740000
H      -43.40340000     -37.20030000     -71.21080000
H      -43.08460000     -36.11600000     -68.89830000
C      -45.75350000     -37.27300000     -72.44410000
H      -46.52790000     -38.02920000     -72.47430000
H      -44.85650000     -37.81160000     -72.79600000
C      -47.51880000     -35.06370000     -68.21680000
H      -48.22600000     -35.81430000     -67.88360000
H      -47.03350000     -34.59160000     -67.35790000
S      -46.41870000     -35.81950000     -73.51580000
S      -48.42500000     -33.70370000     -69.10190000
C      -45.17290000     -34.43010000     -73.22530000
H      -45.19640000     -34.15870000     -72.20570000
H      -44.19810000     -34.80290000     -73.60700000
C      -46.96910000     -32.66540000     -69.39530000
H      -46.19820000     -33.16570000     -68.83980000
H      -47.01800000     -31.73740000     -68.93540000
C      -46.50900000     -32.53750000     -70.87720000
H      -46.17000000     -33.56500000     -71.20230000
H      -47.32570000     -32.21860000     -71.52890000
C      -45.46360000     -33.12860000     -73.97760000
H      -46.54910000     -32.99040000     -73.89040000
H      -45.29910000     -33.32230000     -75.02790000
C      -44.60260000     -31.96660000     -73.54270000
C      -43.45980000     -31.50810000     -74.23570000
C      -44.62450000     -31.29760000     -72.26940000
H      -43.27220000     -31.90630000     -75.23940000
C      -43.51650000     -30.43190000     -72.06010000
C      -45.33810000     -31.47480000     -71.01030000
C      -44.89770000     -30.67400000     -70.03670000
S      -42.52890000     -30.18500000     -73.47230000
S      -43.48390000     -29.74860000     -70.46880000
H      -45.34320000     -30.60670000     -69.06650000
