40
Properties=species:S:1:pos:R:3 #=T CELL(abcABC):=T 1.889726e+02=T 90.00000=T Traj:=T positionsangstrom=T Step:=T 0=T Bead:=T pbc="F F F"
C      -43.16010000     -36.07630000     -69.16180000
C      -43.60700000     -36.34920000     -70.42650000
C      -44.98340000     -36.50270000     -70.69840000
C      -45.93990000     -36.30360000     -69.68960000
C      -45.47200000     -35.95470000     -68.38520000
C      -44.13020000     -35.89710000     -68.15700000
H      -42.11650000     -35.96280000     -69.00630000
H      -45.39370000     -36.64110000     -71.75420000
H      -46.06990000     -35.89330000     -67.43630000
H      -43.77290000     -35.63230000     -67.14790000
C      -47.46950000     -36.39180000     -69.92220000
H      -47.93050000     -36.12790000     -68.93260000
H      -47.87810000     -37.36600000     -70.07370000
C      -42.66310000     -36.36850000     -71.58140000
H      -41.85040000     -35.63320000     -71.40650000
H      -42.16130000     -37.33310000     -71.75030000
S      -48.12870000     -35.37840000     -71.31790000
S      -43.24240000     -35.82120000     -73.27980000
C      -47.63110000     -33.63130000     -70.85890000
H      -48.22690000     -33.07860000     -70.09760000
H      -46.56570000     -33.66790000     -70.61300000
C      -43.38450000     -33.97430000     -73.21520000
H      -43.67130000     -33.54630000     -74.20480000
H      -42.43080000     -33.48780000     -72.92470000
C      -44.45160000     -33.54640000     -72.25320000
H      -45.42960000     -33.80840000     -72.70070000
H      -44.41310000     -34.20250000     -71.34410000
C      -47.74620000     -32.73730000     -72.14360000
H      -48.74900000     -32.56230000     -72.44530000
H      -47.29920000     -33.18660000     -73.02230000
C      -47.05740000     -31.42590000     -71.75570000
C      -47.74130000     -30.30950000     -71.39110000
C      -45.63290000     -31.14520000     -71.88540000
H      -48.84920000     -30.33350000     -71.40040000
C      -45.32800000     -29.79670000     -71.65800000
C      -44.48250000     -32.03170000     -72.04070000
C      -43.29860000     -31.33140000     -72.17810000
S      -46.76630000     -28.80880000     -71.33250000
S      -43.61050000     -29.57400000     -71.66300000
H      -42.27940000     -31.79270000     -72.10750000
