40
Properties=species:S:1:pos:R:3 #=T CELL(abcABC):=T 1.889726e+02=T 90.00000=T Traj:=T positionsangstrom=T Step:=T 0=T Bead:=T pbc="F F F"
C      -44.07710000     -36.25280000     -69.67640000
C      -44.74780000     -36.72850000     -70.81370000
C      -46.14510000     -36.45350000     -70.89330000
C      -46.81860000     -35.69250000     -69.89680000
C      -46.08580000     -35.22680000     -68.81760000
C      -44.74050000     -35.55940000     -68.66780000
H      -43.09440000     -36.63170000     -69.52260000
H      -46.73430000     -36.58350000     -71.80500000
H      -46.45580000     -34.58630000     -68.04530000
H      -44.13890000     -35.09250000     -67.90670000
C      -48.35310000     -35.55790000     -70.00020000
H      -48.88100000     -35.16060000     -69.11100000
H      -48.84150000     -36.43650000     -70.29830000
C      -44.00790000     -37.39150000     -71.94670000
H      -42.97820000     -37.54510000     -71.66360000
H      -44.52390000     -38.27670000     -72.30560000
S      -48.73610000     -34.32430000     -71.37510000
S      -43.91400000     -36.39150000     -73.49140000
C      -47.84580000     -32.81480000     -70.88400000
H      -48.26600000     -32.23720000     -70.06860000
H      -46.88630000     -33.05870000     -70.43690000
C      -43.46060000     -34.78150000     -72.75050000
H      -42.94740000     -34.25260000     -73.61680000
H      -42.84630000     -35.03400000     -71.90000000
C      -44.59990000     -33.83250000     -72.34280000
H      -45.13410000     -33.68560000     -73.31290000
H      -45.28580000     -34.31800000     -71.63060000
C      -47.50670000     -32.02070000     -72.07050000
H      -48.43080000     -31.40560000     -72.44670000
H      -47.19930000     -32.64860000     -72.89140000
C      -46.37310000     -30.99260000     -71.61760000
C      -46.65480000     -29.69110000     -71.31430000
C      -44.91530000     -31.31050000     -71.66870000
H      -47.59530000     -29.12200000     -71.19000000
C      -44.23050000     -30.16800000     -71.37260000
C      -44.08240000     -32.48730000     -71.84330000
C      -42.72490000     -32.15460000     -71.65530000
S      -45.14870000     -28.71330000     -71.02100000
S      -42.53530000     -30.44480000     -71.34810000
H      -41.80920000     -32.73770000     -71.69470000
