40
Properties=species:S:1:pos:R:3 #=T CELL(abcABC):=T 1.889726e+02=T 90.00000=T Traj:=T positionsangstrom=T Step:=T 0=T Bead:=T pbc="F F F"
C      -44.73150000     -35.94700000     -68.48340000
C      -46.04950000     -35.85490000     -69.07000000
C      -46.27010000     -36.35900000     -70.35780000
C      -45.15150000     -36.93630000     -71.05400000
C      -43.86910000     -37.01700000     -70.47600000
C      -43.70050000     -36.50040000     -69.18700000
H      -44.53560000     -35.54180000     -67.53760000
H      -47.27260000     -36.20950000     -70.73260000
H      -43.11850000     -37.40830000     -71.06270000
H      -42.68030000     -36.45180000     -68.70240000
C      -45.25870000     -37.26230000     -72.51140000
H      -45.96500000     -38.12340000     -72.62560000
H      -44.35220000     -37.55440000     -73.04800000
C      -47.16670000     -35.29780000     -68.32810000
H      -47.90120000     -36.04160000     -67.91620000
H      -46.90070000     -34.72090000     -67.39620000
S      -46.12870000     -35.95050000     -73.63190000
S      -48.31950000     -34.07670000     -69.33010000
C      -44.90830000     -34.52730000     -73.42200000
H      -44.59850000     -34.55320000     -72.39370000
H      -43.96910000     -34.60080000     -74.02660000
C      -47.24610000     -32.61710000     -69.31110000
H      -46.80460000     -32.44150000     -68.30720000
H      -47.93930000     -31.70780000     -69.75160000
C      -45.97120000     -32.80950000     -70.28760000
H      -45.27340000     -33.39060000     -69.71840000
H      -46.23960000     -33.44620000     -71.21800000
C      -45.62010000     -33.23100000     -73.70410000
H      -46.58890000     -33.12660000     -73.14950000
H      -46.01540000     -33.26290000     -74.72820000
C      -44.85240000     -31.96940000     -73.38690000
C      -44.00690000     -31.29790000     -74.23720000
C      -44.79550000     -31.28520000     -72.08170000
H      -43.71400000     -31.58760000     -75.24380000
C      -44.10510000     -30.06750000     -72.09990000
C      -45.30670000     -31.48080000     -70.71840000
C      -44.92800000     -30.49010000     -69.83410000
S      -43.21990000     -29.88050000     -73.61000000
S      -44.04220000     -29.22310000     -70.65480000
H      -45.29320000     -30.42590000     -68.77590000
