40
Properties=species:S:1:pos:R:3 #=T CELL(abcABC):=T 1.889726e+02=T 90.00000=T Traj:=T positionsangstrom=T Step:=T 0=T Bead:=T pbc="F F F"
C      -48.66400000     -31.89100000     -70.31550000
C      -48.32180000     -31.87660000     -71.69410000
C      -48.24890000     -33.05940000     -72.41370000
C      -48.50360000     -34.35180000     -71.74120000
C      -48.74000000     -34.34810000     -70.34540000
C      -48.89820000     -33.12880000     -69.65730000
H      -48.75930000     -31.00210000     -69.71340000
H      -47.93150000     -32.96640000     -73.46290000
H      -48.70830000     -35.26750000     -69.75250000
H      -49.15940000     -33.03530000     -68.59270000
C      -48.39670000     -35.57690000     -72.62770000
H      -48.02030000     -35.34050000     -73.62150000
H      -49.35740000     -35.99180000     -72.85310000
C      -48.04310000     -30.55680000     -72.30730000
H      -48.95890000     -30.27600000     -72.92990000
H      -47.83840000     -29.70000000     -71.59580000
S      -47.24420000     -36.85240000     -71.91000000
S      -46.63230000     -30.31480000     -73.55390000
C      -45.86410000     -35.76070000     -71.13680000
H      -46.35600000     -34.82330000     -70.78700000
H      -45.57250000     -36.33850000     -70.22970000
C      -45.10630000     -30.58290000     -72.51040000
H      -45.22030000     -30.00020000     -71.61060000
H      -44.25780000     -30.22530000     -73.13270000
C      -44.81680000     -32.05460000     -72.16840000
H      -45.62350000     -32.52800000     -71.63730000
H      -44.73820000     -32.68290000     -73.14700000
C      -44.69810000     -35.50840000     -71.97690000
H      -44.85010000     -34.85590000     -72.84910000
H      -44.44450000     -36.50740000     -72.47980000
C      -43.45670000     -34.96180000     -71.16100000
C      -42.67380000     -35.78680000     -70.42230000
C      -43.07690000     -33.57240000     -70.98830000
H      -42.64440000     -36.81960000     -70.34070000
C      -41.97100000     -33.42050000     -70.11490000
C      -43.52300000     -32.28660000     -71.40650000
C      -42.73570000     -31.22470000     -70.96160000
S      -41.47300000     -34.99730000     -69.42260000
S      -41.43240000     -31.78000000     -69.89510000
H      -42.89060000     -30.19500000     -71.05890000
