40
Properties=species:S:1:pos:R:3 #=T CELL(abcABC):=T 1.889726e+02=T 90.00000=T Traj:=T positionsangstrom=T Step:=T 0=T Bead:=T pbc="F F F"
C      -44.01420000     -36.27140000     -69.93510000
C      -44.76150000     -36.73870000     -71.01860000
C      -46.14440000     -36.59300000     -70.89810000
C      -46.77550000     -36.09190000     -69.78410000
C      -46.02850000     -35.60050000     -68.70650000
C      -44.63900000     -35.71110000     -68.82940000
H      -42.97760000     -36.41260000     -69.99610000
H      -46.81560000     -36.89600000     -71.74880000
H      -46.36640000     -35.12480000     -67.82270000
H      -43.95370000     -35.26680000     -68.07120000
C      -48.29240000     -35.99070000     -69.92230000
H      -48.85200000     -35.91810000     -69.00280000
H      -48.66130000     -36.87800000     -70.47820000
C      -44.08410000     -37.25260000     -72.21770000
H      -43.07280000     -37.56340000     -71.92180000
H      -44.58110000     -38.10850000     -72.60840000
S      -48.78730000     -34.57500000     -71.14880000
S      -43.86950000     -36.10550000     -73.75320000
C      -47.56340000     -33.14660000     -70.85940000
H      -47.78710000     -32.62930000     -69.94960000
H      -46.62480000     -33.67540000     -70.62320000
C      -43.13660000     -34.53170000     -72.83650000
H      -42.29540000     -34.18180000     -73.46350000
H      -42.73470000     -35.04200000     -71.90200000
C      -44.28870000     -33.57300000     -72.54110000
H      -44.85030000     -33.27880000     -73.50050000
H      -44.90880000     -34.18200000     -71.83810000
C      -47.42220000     -32.22440000     -72.05000000
H      -48.41430000     -31.87490000     -72.33300000
H      -47.13350000     -32.71920000     -72.99360000
C      -46.42780000     -31.07340000     -71.79340000
C      -46.87300000     -29.82320000     -71.39770000
C      -44.96300000     -31.16790000     -71.64410000
H      -47.90040000     -29.38220000     -71.39550000
C      -44.32810000     -29.93500000     -71.22560000
C      -43.92880000     -32.17330000     -71.95670000
C      -42.69750000     -31.79500000     -71.55370000
S      -45.54820000     -28.74590000     -70.93270000
S      -42.57560000     -30.14790000     -70.99980000
H      -41.84650000     -32.33310000     -71.78590000
