40
Properties=species:S:1:pos:R:3 #=T CELL(abcABC):=T 1.889726e+02=T 90.00000=T Traj:=T positionsangstrom=T Step:=T 0=T Bead:=T pbc="F F F"
C      -43.91580000     -36.35780000     -69.96250000
C      -44.67200000     -36.73550000     -71.12370000
C      -46.06300000     -36.59610000     -71.12210000
C      -46.68510000     -36.07880000     -69.93920000
C      -45.89700000     -35.77300000     -68.81730000
C      -44.50570000     -35.83550000     -68.80940000
H      -42.82660000     -36.43310000     -69.94180000
H      -46.58710000     -36.83390000     -72.06390000
H      -46.42680000     -35.31170000     -68.04760000
H      -43.98230000     -35.55480000     -67.87240000
C      -48.17510000     -35.68410000     -69.83150000
H      -48.35390000     -35.20230000     -68.89220000
H      -48.87320000     -36.59500000     -69.93330000
C      -43.90890000     -37.33250000     -72.27090000
H      -42.88900000     -37.61470000     -71.96420000
H      -44.40380000     -38.16460000     -72.84830000
S      -48.67410000     -34.57850000     -71.15970000
S      -43.72550000     -36.00860000     -73.64540000
C      -47.56800000     -33.13520000     -70.78410000
H      -47.95250000     -32.35760000     -70.11620000
H      -46.57980000     -33.55380000     -70.48380000
C      -43.23460000     -34.41100000     -72.84140000
H      -42.64400000     -33.94410000     -73.64820000
H      -42.53390000     -34.59380000     -72.10620000
C      -44.39230000     -33.55610000     -72.41030000
H      -44.99450000     -33.53140000     -73.28570000
H      -45.01850000     -34.08250000     -71.69610000
C      -47.38490000     -32.30980000     -72.08920000
H      -48.37620000     -31.97520000     -72.42690000
H      -46.94290000     -32.92430000     -72.92920000
C      -46.50860000     -31.10760000     -71.80790000
C      -46.99110000     -29.88600000     -71.39960000
C      -45.07460000     -31.23630000     -71.52270000
H      -48.00830000     -29.58610000     -71.37360000
C      -44.48330000     -30.06360000     -71.09700000
C      -44.04690000     -32.17120000     -71.92240000
C      -42.78780000     -31.70670000     -71.71740000
S      -45.70770000     -28.81450000     -70.89300000
S      -42.71720000     -30.09960000     -71.02090000
H      -41.86030000     -32.15760000     -71.92040000
