40
Properties=species:S:1:pos:R:3 #=T CELL(abcABC):=T 1.889726e+02=T 90.00000=T Traj:=T positionsangstrom=T Step:=T 0=T Bead:=T pbc="F F F"
C      -44.21690000     -36.30490000     -69.67530000
C      -44.93950000     -36.58550000     -70.81600000
C      -46.30250000     -36.27740000     -70.85350000
C      -46.97020000     -35.71960000     -69.75700000
C      -46.20310000     -35.42250000     -68.59960000
C      -44.84160000     -35.75800000     -68.55900000
H      -43.22520000     -36.52030000     -69.61240000
H      -46.98010000     -36.68520000     -71.64670000
H      -46.66560000     -35.13560000     -67.65310000
H      -44.28990000     -35.50900000     -67.64560000
C      -48.42960000     -35.46430000     -69.72270000
H      -48.70370000     -35.13450000     -68.69330000
H      -49.00500000     -36.33870000     -69.90530000
C      -44.19270000     -37.25860000     -71.92500000
H      -43.25130000     -37.68510000     -71.59640000
H      -44.75250000     -38.19860000     -72.15590000
S      -49.03310000     -34.29570000     -71.01010000
S      -43.99580000     -36.34570000     -73.50490000
C      -47.55820000     -33.12580000     -70.94430000
H      -47.70940000     -32.61590000     -69.97560000
H      -46.66860000     -33.72250000     -70.97800000
C      -43.47080000     -34.69100000     -72.91600000
H      -42.58190000     -34.28070000     -73.45270000
H      -43.03230000     -34.81060000     -71.90970000
C      -44.50570000     -33.63610000     -72.87440000
H      -44.94790000     -33.42720000     -73.84640000
H      -45.25530000     -34.01480000     -72.15720000
C      -47.38680000     -31.98500000     -72.01480000
H      -48.33980000     -31.45980000     -72.16440000
H      -47.16430000     -32.47730000     -72.97320000
C      -46.29860000     -31.01710000     -71.61580000
C      -46.49970000     -29.80000000     -71.05060000
C      -44.85090000     -31.27570000     -71.81020000
H      -47.49890000     -29.36960000     -70.75720000
C      -44.00100000     -30.22880000     -71.28790000
C      -44.03270000     -32.33970000     -72.32720000
C      -42.69810000     -31.94890000     -72.50260000
S      -44.97280000     -28.91390000     -70.62550000
S      -42.32330000     -30.38320000     -71.71500000
H      -41.92530000     -32.67770000     -72.67120000
