40
Properties=species:S:1:pos:R:3 #=T CELL(abcABC):=T 1.889726e+02=T 90.00000=T Traj:=T positionsangstrom=T Step:=T 0=T Bead:=T pbc="F F F"
C      -44.40320000     -36.21870000     -69.66160000
C      -45.05680000     -36.59490000     -70.86660000
C      -46.46330000     -36.58840000     -71.01730000
C      -47.19300000     -36.10330000     -69.91560000
C      -46.57020000     -35.93500000     -68.66840000
C      -45.14680000     -35.99760000     -68.50730000
H      -43.33400000     -36.22140000     -69.52500000
H      -47.02150000     -36.75070000     -72.00910000
H      -47.27060000     -35.52060000     -67.90010000
H      -44.68520000     -35.84740000     -67.51910000
C      -48.60690000     -35.64130000     -70.09610000
H      -49.12340000     -35.66530000     -69.10180000
H      -49.07560000     -36.30810000     -70.78100000
C      -44.15850000     -37.18090000     -71.90110000
H      -43.07830000     -37.08780000     -71.49810000
H      -44.44810000     -38.24080000     -72.02670000
S      -48.71910000     -34.08590000     -70.96320000
S      -44.32700000     -36.45470000     -73.57740000
C      -47.28610000     -33.10640000     -70.39390000
H      -47.38990000     -32.86310000     -69.31980000
H      -46.38230000     -33.77370000     -70.52400000
C      -43.77970000     -34.62520000     -73.31850000
H      -43.68580000     -34.30680000     -74.35800000
H      -42.86980000     -34.87130000     -72.82960000
C      -44.61570000     -33.65370000     -72.42100000
H      -45.57380000     -33.51420000     -72.96510000
H      -44.86400000     -33.95270000     -71.36830000
C      -47.30860000     -31.86530000     -71.23050000
H      -48.19100000     -31.33730000     -70.96050000
H      -47.50640000     -32.16660000     -72.24170000
C      -46.06760000     -30.92690000     -71.16400000
C      -46.21860000     -29.65570000     -70.67690000
C      -44.71830000     -31.20750000     -71.60940000
H      -47.09320000     -29.20820000     -70.26450000
C      -43.88810000     -30.06770000     -71.49880000
C      -43.98670000     -32.31540000     -72.24820000
C      -42.69260000     -31.99040000     -72.63630000
S      -44.73240000     -28.68880000     -70.77750000
S      -42.20770000     -30.38540000     -72.11640000
H      -42.09630000     -32.76960000     -73.10630000
