40
Properties=species:S:1:pos:R:3 #=T CELL(abcABC):=T 1.889726e+02=T 90.00000=T Traj:=T positionsangstrom=T Step:=T 0=T Bead:=T pbc="F F F"
C      -48.69570000     -31.74700000     -70.31460000
C      -48.30930000     -31.84170000     -71.65360000
C      -48.10620000     -33.03520000     -72.40310000
C      -48.35910000     -34.26800000     -71.78140000
C      -48.69040000     -34.22960000     -70.42040000
C      -48.82600000     -33.04660000     -69.71560000
H      -48.81370000     -30.81270000     -69.72760000
H      -47.80250000     -32.90900000     -73.40520000
H      -48.89440000     -35.18010000     -69.94380000
H      -49.02270000     -32.97060000     -68.68150000
C      -48.19540000     -35.48850000     -72.66000000
H      -47.81970000     -35.16150000     -73.67080000
H      -49.17610000     -36.09620000     -72.85180000
C      -48.07380000     -30.43420000     -72.26200000
H      -49.01310000     -30.00760000     -72.64380000
H      -48.00890000     -29.79590000     -71.38560000
S      -47.10350000     -36.78730000     -71.92130000
S      -46.75960000     -30.28960000     -73.46950000
C      -45.73090000     -36.02320000     -71.08360000
H      -46.11850000     -35.11940000     -70.51930000
H      -45.43160000     -36.67430000     -70.28480000
C      -45.24490000     -30.64260000     -72.43850000
H      -45.36400000     -30.06850000     -71.53810000
H      -44.33670000     -30.16090000     -72.95140000
C      -44.95220000     -32.09980000     -72.13610000
H      -45.78720000     -32.58660000     -71.62340000
H      -44.80180000     -32.69130000     -73.00940000
C      -44.63970000     -35.57970000     -72.02170000
H      -45.08410000     -34.85770000     -72.69750000
H      -44.29440000     -36.40930000     -72.66130000
C      -43.45780000     -35.03250000     -71.20560000
C      -42.62540000     -35.87830000     -70.55460000
C      -43.19140000     -33.61000000     -70.86390000
H      -42.70640000     -36.95470000     -70.62130000
C      -42.03980000     -33.48110000     -70.04670000
C      -43.75410000     -32.29300000     -71.23820000
C      -42.95300000     -31.30000000     -70.69880000
S      -41.31390000     -35.03520000     -69.71090000
S      -41.55520000     -31.79710000     -69.86760000
H      -43.17190000     -30.24310000     -70.97860000
