40
Properties=species:S:1:pos:R:3 #=T CELL(abcABC):=T 1.889726e+02=T 90.00000=T Traj:=T positionsangstrom=T Step:=T 0=T Bead:=T pbc="F F F"
C      -44.61340000     -37.06430000     -69.65080000
C      -45.36020000     -37.05980000     -70.83800000
C      -46.59210000     -36.35520000     -70.87020000
C      -47.13650000     -35.78790000     -69.73480000
C      -46.36550000     -35.82660000     -68.55820000
C      -45.08680000     -36.39010000     -68.51210000
H      -43.61440000     -37.61350000     -69.75360000
H      -47.02950000     -36.27180000     -71.86990000
H      -46.55610000     -35.21850000     -67.65970000
H      -44.57610000     -36.45060000     -67.59410000
C      -48.51760000     -35.23730000     -69.74520000
H      -48.85770000     -34.86270000     -68.77880000
H      -49.15890000     -36.06370000     -70.05030000
C      -44.75810000     -37.53200000     -72.13780000
H      -43.89190000     -38.12630000     -72.03940000
H      -45.50650000     -38.23200000     -72.53150000
S      -48.67900000     -33.89260000     -70.99000000
S      -44.49040000     -36.36560000     -73.65330000
C      -47.40710000     -32.64340000     -70.41280000
H      -47.83780000     -32.25840000     -69.46250000
H      -46.49810000     -33.25110000     -70.26210000
C      -43.70150000     -34.84960000     -72.99130000
H      -43.14390000     -34.40870000     -73.84910000
H      -43.03750000     -35.02950000     -72.18280000
C      -44.69980000     -33.74990000     -72.41340000
H      -45.60950000     -33.80970000     -73.00530000
H      -44.99180000     -34.20400000     -71.46550000
C      -47.24230000     -31.58180000     -71.49940000
H      -48.14640000     -31.04160000     -71.49570000
H      -47.21430000     -32.06840000     -72.47560000
C      -46.02430000     -30.73850000     -71.34420000
C      -46.02000000     -29.52360000     -70.76020000
C      -44.64600000     -31.17350000     -71.74430000
H      -46.92590000     -29.05410000     -70.43780000
C      -43.75790000     -30.14780000     -71.54970000
C      -44.01880000     -32.36160000     -72.27670000
C      -42.66290000     -32.13800000     -72.53590000
S      -44.46540000     -28.70560000     -70.83990000
S      -42.15290000     -30.45710000     -72.05670000
H      -42.04450000     -32.81460000     -73.08770000
