40
Properties=species:S:1:pos:R:3 #=T CELL(abcABC):=T 1.889726e+02=T 90.00000=T Traj:=T positionsangstrom=T Step:=T 0=T Bead:=T pbc="F F F"
C      -44.10830000     -36.05990000     -70.40470000
C      -45.26360000     -36.62870000     -70.95500000
C      -46.60670000     -36.22890000     -70.51970000
C      -46.78060000     -35.32880000     -69.45310000
C      -45.54420000     -34.99350000     -68.75990000
C      -44.29360000     -35.26130000     -69.27550000
H      -43.10670000     -36.24590000     -70.63950000
H      -47.42830000     -36.59150000     -71.14880000
H      -45.58690000     -34.41120000     -67.79750000
H      -43.41740000     -34.92420000     -68.72990000
C      -48.16000000     -34.92070000     -69.06970000
H      -48.35060000     -34.50760000     -68.08750000
H      -48.81970000     -35.75030000     -69.15760000
C      -45.13330000     -37.42220000     -72.29860000
H      -44.07680000     -37.85410000     -72.38760000
H      -45.77370000     -38.32090000     -72.38810000
S      -48.82620000     -33.69560000     -70.29610000
S      -45.64020000     -36.43000000     -73.78660000
C      -47.39300000     -32.50640000     -70.16090000
H      -47.58940000     -31.90950000     -69.32680000
H      -46.47010000     -33.10570000     -70.02750000
C      -44.57980000     -34.86070000     -73.65270000
H      -44.32130000     -34.50290000     -74.67130000
H      -43.61130000     -35.24420000     -73.13380000
C      -45.24550000     -33.65570000     -72.93770000
H      -45.95550000     -33.13340000     -73.58580000
H      -45.72970000     -34.01630000     -72.08740000
C      -47.20240000     -31.58230000     -71.37480000
H      -48.03970000     -30.87940000     -71.48820000
H      -47.19040000     -32.21010000     -72.32280000
C      -45.86660000     -30.86640000     -71.29780000
C      -45.64190000     -29.60790000     -70.72230000
C      -44.65050000     -31.42290000     -71.85440000
H      -46.47660000     -29.19570000     -70.10060000
C      -43.52150000     -30.60730000     -71.50740000
C      -44.18460000     -32.59890000     -72.56960000
C      -42.79680000     -32.72440000     -72.72680000
S      -43.95310000     -29.18340000     -70.66980000
S      -41.99580000     -31.33060000     -71.98210000
H      -42.25270000     -33.56890000     -73.11770000
