40
Properties=species:S:1:pos:R:3 #=T CELL(abcABC):=T 1.889726e+02=T 90.00000=T Traj:=T positionsangstrom=T Step:=T 0=T Bead:=T pbc="F F F"
C      -44.08660000     -36.20530000     -70.25170000
C      -45.25850000     -36.64890000     -70.95950000
C      -46.53490000     -36.21770000     -70.55420000
C      -46.71240000     -35.32510000     -69.45140000
C      -45.58280000     -34.94440000     -68.75120000
C      -44.32700000     -35.38090000     -69.18910000
H      -43.07000000     -36.25360000     -70.58060000
H      -47.47340000     -36.52910000     -71.08380000
H      -45.66050000     -34.17070000     -67.94030000
H      -43.45150000     -34.91890000     -68.67340000
C      -48.09290000     -34.87060000     -69.11660000
H      -48.00460000     -34.33120000     -68.20230000
H      -48.93120000     -35.66130000     -69.09510000
C      -45.08350000     -37.30620000     -72.30350000
H      -44.02830000     -37.42040000     -72.48670000
H      -45.44310000     -38.32460000     -72.40830000
S      -48.57990000     -33.65110000     -70.37380000
S      -45.84700000     -36.37530000     -73.72790000
C      -47.26890000     -32.34570000     -70.26370000
H      -47.49230000     -31.78600000     -69.33840000
H      -46.28430000     -32.83900000     -70.06080000
C      -44.61900000     -34.93020000     -73.72960000
H      -44.17390000     -34.96240000     -74.71460000
H      -43.81240000     -35.21090000     -73.08440000
C      -45.21580000     -33.60790000     -73.23000000
H      -45.81730000     -33.15590000     -74.03110000
H      -45.96390000     -33.84520000     -72.40070000
C      -47.23310000     -31.39180000     -71.43970000
H      -48.07640000     -30.74390000     -71.42200000
H      -47.39480000     -31.99220000     -72.36580000
C      -45.85340000     -30.81010000     -71.34410000
C      -45.65270000     -29.72280000     -70.53150000
C      -44.67420000     -31.36670000     -71.85770000
H      -46.44910000     -29.17970000     -70.06860000
C      -43.54110000     -30.66110000     -71.47990000
C      -44.25360000     -32.56390000     -72.62010000
C      -42.91750000     -32.69740000     -72.86890000
S      -43.97780000     -29.35150000     -70.39240000
S      -42.04270000     -31.41520000     -72.05410000
H      -42.42280000     -33.50240000     -73.38010000
