40
Properties=species:S:1:pos:R:3 #=T CELL(abcABC):=T 1.889726e+02=T 90.00000=T Traj:=T positionsangstrom=T Step:=T 0=T Bead:=T pbc="F F F"
C      -44.35290000     -36.14740000     -70.28770000
C      -45.47940000     -36.50850000     -71.17620000
C      -46.71320000     -36.10870000     -70.72000000
C      -46.91980000     -35.44550000     -69.51160000
C      -45.85530000     -35.07370000     -68.64150000
C      -44.56430000     -35.42790000     -69.11190000
H      -43.41090000     -36.51520000     -70.68260000
H      -47.56710000     -36.29520000     -71.36300000
H      -45.95870000     -34.57610000     -67.69740000
H      -43.68150000     -35.18390000     -68.53420000
C      -48.26330000     -34.99090000     -69.15770000
H      -48.38020000     -34.69860000     -68.12290000
H      -49.06790000     -35.70370000     -69.39770000
C      -45.23430000     -37.27120000     -72.46820000
H      -44.13990000     -37.49240000     -72.61350000
H      -45.75680000     -38.22110000     -72.42150000
S      -48.76480000     -33.49480000     -70.12010000
S      -45.81640000     -36.34330000     -73.95310000
C      -47.50300000     -32.10620000     -69.75970000
H      -47.98070000     -31.41620000     -69.04000000
H      -46.73330000     -32.63210000     -69.24600000
C      -44.68030000     -34.82490000     -73.93720000
H      -44.64660000     -34.45600000     -74.97460000
H      -43.67860000     -35.02420000     -73.67900000
C      -45.25480000     -33.76720000     -72.98330000
H      -46.15430000     -33.24570000     -73.54010000
H      -45.70870000     -34.23670000     -72.09470000
C      -46.97160000     -31.53440000     -71.14590000
H      -47.76860000     -30.82700000     -71.54330000
H      -46.94680000     -32.36480000     -71.82090000
C      -45.57790000     -31.03950000     -70.97010000
C      -45.28640000     -29.89640000     -70.22440000
C      -44.39170000     -31.59870000     -71.70460000
H      -45.89110000     -29.30930000     -69.49540000
C      -43.32340000     -30.69680000     -71.53160000
C      -44.19440000     -32.71240000     -72.58700000
C      -42.87120000     -32.72730000     -72.92660000
S      -43.63560000     -29.35400000     -70.42610000
S      -41.97570000     -31.24780000     -72.50730000
H      -42.27680000     -33.37290000     -73.56390000
