40
Properties=species:S:1:pos:R:3 #=T CELL(abcABC):=T 1.889726e+02=T 90.00000=T Traj:=T positionsangstrom=T Step:=T 0=T Bead:=T pbc="F F F"
C      -44.11970000     -36.15750000     -70.29620000
C      -45.28060000     -36.60090000     -70.97540000
C      -46.56840000     -36.12060000     -70.62900000
C      -46.67780000     -35.32390000     -69.46280000
C      -45.58410000     -35.03120000     -68.68240000
C      -44.30840000     -35.46160000     -69.09120000
H      -43.12920000     -36.47580000     -70.52780000
H      -47.51280000     -36.27120000     -71.15730000
H      -45.61710000     -34.48420000     -67.75690000
H      -43.46150000     -35.26310000     -68.43560000
C      -48.09240000     -34.82070000     -69.09980000
H      -48.16230000     -34.40800000     -68.09630000
H      -48.83250000     -35.62150000     -69.05020000
C      -45.23810000     -37.39830000     -72.28120000
H      -44.20950000     -37.73620000     -72.38820000
H      -46.12980000     -38.07600000     -72.25490000
S      -48.67810000     -33.67920000     -70.38470000
S      -45.79070000     -36.31600000     -73.72060000
C      -47.40390000     -32.38550000     -70.22470000
H      -47.62110000     -31.87710000     -69.27840000
H      -46.42580000     -32.78950000     -70.09140000
C      -44.71300000     -34.80420000     -73.70060000
H      -44.48690000     -34.60790000     -74.76300000
H      -43.80680000     -35.00380000     -73.16560000
C      -45.34590000     -33.51620000     -73.27700000
H      -45.86310000     -33.10640000     -74.16340000
H      -46.16770000     -33.71780000     -72.48220000
C      -47.19110000     -31.39750000     -71.35270000
H      -47.94970000     -30.57300000     -71.41800000
H      -47.26880000     -31.88620000     -72.32120000
C      -45.80890000     -30.78900000     -71.27880000
C      -45.51940000     -29.70190000     -70.51120000
C      -44.63500000     -31.44290000     -71.80160000
H      -46.24740000     -28.98930000     -70.25160000
C      -43.49730000     -30.77570000     -71.45640000
C      -44.30980000     -32.57750000     -72.73380000
C      -42.98560000     -32.59590000     -72.96050000
S      -43.75820000     -29.45100000     -70.34460000
S      -42.03530000     -31.40410000     -72.14770000
H      -42.51960000     -33.26220000     -73.68150000
