40
Properties=species:S:1:pos:R:3 #=T CELL(abcABC):=T 1.889726e+02=T 90.00000=T Traj:=T positionsangstrom=T Step:=T 0=T Bead:=T pbc="F F F"
C      -45.24870000     -37.60830000     -71.14900000
C      -46.28050000     -36.93640000     -71.81480000
C      -47.12120000     -36.19940000     -71.05660000
C      -46.94080000     -35.89640000     -69.72110000
C      -45.80160000     -36.44020000     -69.12840000
C      -44.91080000     -37.27990000     -69.83910000
H      -44.68970000     -38.27400000     -71.79330000
H      -48.00710000     -35.75150000     -71.46240000
H      -45.44960000     -36.17890000     -68.10920000
H      -44.00820000     -37.68940000     -69.33050000
C      -48.01780000     -35.13100000     -68.96150000
H      -47.79660000     -35.02900000     -67.93560000
H      -48.97740000     -35.70410000     -69.10370000
C      -46.52260000     -36.98830000     -73.30720000
H      -46.00580000     -37.77610000     -73.84060000
H      -47.62320000     -37.16250000     -73.39880000
S      -48.32410000     -33.47910000     -69.69260000
S      -46.14730000     -35.49820000     -74.29890000
C      -46.70150000     -32.69440000     -69.48270000
H      -46.64960000     -32.49560000     -68.42130000
H      -45.91430000     -33.49680000     -69.57900000
C      -44.85270000     -34.58780000     -73.39110000
H      -44.06760000     -34.43980000     -74.15050000
H      -44.43490000     -35.16120000     -72.55610000
C      -45.28130000     -33.32080000     -72.73900000
H      -45.92630000     -32.70470000     -73.33930000
H      -45.72870000     -33.56400000     -71.80540000
C      -46.69420000     -31.39400000     -70.37310000
H      -47.28540000     -30.67190000     -69.88550000
H      -47.17770000     -31.64940000     -71.33410000
C      -45.31690000     -30.67730000     -70.54990000
C      -44.93840000     -29.48450000     -69.96840000
C      -44.23840000     -31.21010000     -71.43650000
H      -45.63630000     -28.92090000     -69.33040000
C      -43.05800000     -30.41420000     -71.42350000
C      -44.15110000     -32.30550000     -72.34640000
C      -42.94210000     -32.37360000     -72.98810000
S      -43.20000000     -29.12050000     -70.23880000
S      -41.86150000     -31.06280000     -72.48720000
H      -42.51370000     -33.07930000     -73.74660000
