40
Properties=species:S:1:pos:R:3 #=T CELL(abcABC):=T 1.889726e+02=T 90.00000=T Traj:=T positionsangstrom=T Step:=T 0=T Bead:=T pbc="F F F"
C      -44.25200000     -36.14020000     -70.28740000
C      -45.35320000     -36.50700000     -71.09620000
C      -46.65900000     -36.10040000     -70.61070000
C      -46.74460000     -35.33090000     -69.47290000
C      -45.65190000     -35.03360000     -68.61090000
C      -44.42810000     -35.47780000     -69.03700000
H      -43.20960000     -36.40430000     -70.53010000
H      -47.51100000     -36.35300000     -71.18310000
H      -45.82180000     -34.57460000     -67.66110000
H      -43.61790000     -35.26000000     -68.42640000
C      -48.15410000     -34.83400000     -69.04110000
H      -48.16790000     -34.39630000     -67.96120000
H      -48.78530000     -35.68230000     -69.08220000
C      -45.17690000     -37.26730000     -72.37660000
H      -44.15180000     -37.54590000     -72.59240000
H      -45.60300000     -38.26630000     -72.37360000
S      -48.79790000     -33.58510000     -70.35880000
S      -45.73730000     -36.31250000     -73.92310000
C      -47.49960000     -32.31680000     -69.95710000
H      -47.88830000     -31.60560000     -69.18770000
H      -46.61510000     -32.85110000     -69.49990000
C      -44.70870000     -34.84790000     -73.72890000
H      -44.37390000     -34.53740000     -74.73370000
H      -43.82560000     -35.21750000     -73.12250000
C      -45.33790000     -33.68060000     -73.02230000
H      -46.23160000     -33.33420000     -73.43970000
H      -45.61250000     -34.06550000     -72.04810000
C      -47.14790000     -31.42030000     -71.17990000
H      -47.89300000     -30.56250000     -71.20630000
H      -47.25600000     -31.91930000     -72.06050000
C      -45.69970000     -30.91140000     -71.08740000
C      -45.36340000     -29.82290000     -70.30840000
C      -44.53970000     -31.45620000     -71.80560000
H      -46.02870000     -29.17940000     -69.67930000
C      -43.41130000     -30.74070000     -71.56780000
C      -44.32100000     -32.60020000     -72.73590000
C      -43.02970000     -32.65860000     -73.08830000
S      -43.65850000     -29.40050000     -70.43580000
S      -42.00020000     -31.43030000     -72.26420000
H      -42.61650000     -33.34280000     -73.81530000
