40
Properties=species:S:1:pos:R:3 #=T CELL(abcABC):=T 1.889726e+02=T 90.00000=T Traj:=T positionsangstrom=T Step:=T 0=T Bead:=T pbc="F F F"
C      -45.62660000     -37.17540000     -72.27130000
C      -46.75620000     -36.33580000     -72.61480000
C      -47.58790000     -35.79670000     -71.59810000
C      -47.23220000     -35.98330000     -70.26230000
C      -46.29580000     -36.95190000     -69.92620000
C      -45.40470000     -37.40320000     -70.92220000
H      -45.09930000     -37.76280000     -73.06760000
H      -48.37580000     -35.11010000     -71.78160000
H      -46.09390000     -37.13280000     -68.87060000
H      -44.63760000     -38.17220000     -70.68540000
C      -48.06260000     -35.44070000     -69.16770000
H      -47.64010000     -35.58180000     -68.17110000
H      -49.07550000     -35.84210000     -69.17610000
C      -46.99450000     -36.02650000     -74.12850000
H      -46.25800000     -36.64620000     -74.63580000
H      -47.98470000     -36.34070000     -74.50970000
S      -48.24850000     -33.56730000     -69.36800000
S      -46.81370000     -34.27670000     -74.50980000
C      -46.45360000     -33.03160000     -69.24510000
H      -46.02960000     -33.00110000     -68.24760000
H      -45.84680000     -33.72670000     -69.88900000
C      -45.05090000     -33.91890000     -73.93250000
H      -44.58260000     -33.20400000     -74.55840000
H      -44.49640000     -34.79080000     -73.90830000
C      -45.14080000     -33.19640000     -72.64290000
H      -45.95550000     -32.39530000     -72.85270000
H      -45.63320000     -33.74740000     -71.87410000
C      -46.27080000     -31.65540000     -69.89900000
H      -46.87860000     -31.03410000     -69.21420000
H      -46.71480000     -31.66420000     -70.83660000
C      -44.84850000     -31.18460000     -69.95320000
C      -44.32610000     -30.31770000     -69.05510000
C      -43.93660000     -31.58940000     -70.99060000
H      -44.78640000     -30.05700000     -68.09010000
C      -42.77670000     -30.81930000     -70.88220000
C      -43.91910000     -32.45080000     -72.15460000
C      -42.70020000     -32.41480000     -72.82700000
S      -42.72300000     -29.76080000     -69.49280000
S      -41.59450000     -31.29200000     -72.14630000
H      -42.31910000     -32.99240000     -73.62280000
