40
Properties=species:S:1:pos:R:3 #=T CELL(abcABC):=T 1.889726e+02=T 90.00000=T Traj:=T positionsangstrom=T Step:=T 0=T Bead:=T pbc="F F F"
C      -45.36640000     -37.66130000     -71.71140000
C      -46.36750000     -36.76940000     -72.19240000
C      -47.09710000     -36.01670000     -71.30790000
C      -46.82500000     -36.04530000     -69.94310000
C      -45.93860000     -37.00810000     -69.48050000
C      -45.20820000     -37.85960000     -70.38960000
H      -44.85310000     -38.41320000     -72.39640000
H      -47.90820000     -35.41960000     -71.73830000
H      -45.70880000     -36.94400000     -68.46920000
H      -44.54920000     -38.58500000     -69.93250000
C      -47.50120000     -35.17760000     -68.93580000
H      -46.87930000     -34.97180000     -68.13580000
H      -48.36920000     -35.78840000     -68.60550000
C      -46.55830000     -36.49880000     -73.72230000
H      -45.64900000     -36.85550000     -74.20280000
H      -47.43720000     -36.99100000     -74.23910000
S      -48.16680000     -33.52330000     -69.53350000
S      -46.89570000     -34.79040000     -74.28200000
C      -46.44490000     -32.74490000     -69.56330000
H      -46.08630000     -32.81220000     -68.55550000
H      -45.86330000     -33.43930000     -70.14860000
C      -45.26880000     -33.93750000     -73.91850000
H      -45.26600000     -33.07460000     -74.64450000
H      -44.41020000     -34.60970000     -74.13790000
C      -45.21020000     -33.35960000     -72.47430000
H      -46.21220000     -32.97540000     -72.21620000
H      -44.97500000     -34.24560000     -71.79320000
C      -46.56230000     -31.32190000     -70.10060000
H      -47.05230000     -30.68590000     -69.39170000
H      -47.18970000     -31.35350000     -71.00820000
C      -45.23040000     -30.73110000     -70.43480000
C      -44.76010000     -29.66770000     -69.73910000
C      -44.19140000     -31.32890000     -71.23800000
H      -45.31790000     -28.93090000     -69.13620000
C      -42.95820000     -30.69540000     -71.11730000
C      -44.07140000     -32.40080000     -72.16470000
C      -42.78790000     -32.58990000     -72.69230000
S      -43.07250000     -29.21650000     -70.11430000
S      -41.70180000     -31.31470000     -72.14770000
H      -42.49040000     -33.30220000     -73.45840000
