40
Properties=species:S:1:pos:R:3 #=T CELL(abcABC):=T 1.889726e+02=T 90.00000=T Traj:=T positionsangstrom=T Step:=T 0=T Bead:=T pbc="F F F"
C      -47.63090000     -34.41550000     -75.27550000
C      -47.54430000     -33.72670000     -74.06100000
C      -47.34910000     -34.46330000     -72.89570000
C      -46.93140000     -35.79210000     -72.90910000
C      -46.83100000     -36.40840000     -74.17070000
C      -47.23180000     -35.76370000     -75.34970000
H      -47.78690000     -33.87390000     -76.23970000
H      -47.63170000     -33.93310000     -71.89800000
H      -46.52310000     -37.45040000     -74.29510000
H      -47.24010000     -36.30420000     -76.28300000
C      -46.57440000     -36.61880000     -71.62120000
H      -47.14570000     -37.48500000     -71.66300000
H      -46.56130000     -36.05580000     -70.66770000
C      -47.83150000     -32.28160000     -74.06970000
H      -48.59850000     -32.04990000     -74.89810000
H      -48.19730000     -31.82760000     -73.11100000
S      -44.79370000     -37.08290000     -71.71750000
S      -46.36730000     -31.17980000     -74.34240000
C      -44.15640000     -35.97860000     -70.34700000
H      -45.00180000     -35.78850000     -69.64310000
H      -43.38070000     -36.48060000     -69.75780000
C      -45.95430000     -30.69340000     -72.56440000
H      -46.97460000     -30.35110000     -72.25780000
H      -45.27840000     -29.81760000     -72.74820000
C      -45.25310000     -31.78610000     -71.85610000
H      -46.00680000     -32.64110000     -71.55340000
H      -44.53980000     -32.28480000     -72.41950000
C      -43.67730000     -34.61060000     -70.82790000
H      -44.40850000     -34.17880000     -71.54000000
H      -42.79670000     -34.73210000     -71.46210000
C      -43.50740000     -33.64910000     -69.66510000
C      -42.98330000     -34.14080000     -68.43750000
C      -44.06710000     -32.35230000     -69.57500000
H      -42.47600000     -35.10550000     -68.31460000
C      -43.79540000     -31.75920000     -68.32270000
C      -44.74990000     -31.36210000     -70.48410000
C      -45.06090000     -30.13780000     -69.86660000
S      -43.09140000     -32.91250000     -67.19050000
S      -44.54030000     -30.17450000     -68.11470000
H      -45.72970000     -29.35250000     -70.23700000
