40
Properties=species:S:1:pos:R:3 #=T CELL(abcABC):=T 1.889726e+02=T 90.00000=T Traj:=T positionsangstrom=T Step:=T 0=T Bead:=T pbc="F F F"
C      -45.68520000     -36.50870000     -72.39890000
C      -46.80790000     -35.75290000     -72.78590000
C      -47.68070000     -35.34110000     -71.83930000
C      -47.41150000     -35.55150000     -70.45380000
C      -46.26670000     -36.24210000     -70.07950000
C      -45.36920000     -36.64470000     -71.02430000
H      -45.02950000     -36.94240000     -73.18790000
H      -48.59970000     -34.78000000     -72.10890000
H      -46.05760000     -36.40730000     -69.04590000
H      -44.39670000     -37.06040000     -70.84490000
C      -48.40470000     -35.09990000     -69.46160000
H      -48.23380000     -35.58960000     -68.51100000
H      -49.43860000     -35.47280000     -69.74590000
C      -47.27590000     -35.53860000     -74.27000000
H      -46.65210000     -36.09570000     -74.97320000
H      -48.29750000     -35.85630000     -74.47500000
S      -48.35930000     -33.20760000     -69.34370000
S      -47.18180000     -33.71690000     -74.74930000
C      -46.58940000     -32.95330000     -69.04520000
H      -46.28970000     -33.06330000     -67.98030000
H      -46.05930000     -33.78480000     -69.46100000
C      -45.57010000     -33.12170000     -74.15580000
H      -45.20500000     -32.41630000     -74.91210000
H      -44.86480000     -33.94170000     -74.31740000
C      -45.49460000     -32.53710000     -72.78340000
H      -45.97160000     -31.49450000     -72.78300000
H      -45.91660000     -33.13160000     -72.06160000
C      -46.07960000     -31.56050000     -69.61150000
H      -46.42940000     -30.78350000     -68.93050000
H      -46.55200000     -31.42140000     -70.61040000
C      -44.57720000     -31.52650000     -69.73870000
C      -43.77090000     -31.13970000     -68.68910000
C      -43.77260000     -31.93420000     -70.92610000
H      -44.10810000     -30.98200000     -67.63330000
C      -42.42370000     -31.89430000     -70.61580000
C      -44.06910000     -32.28170000     -72.32530000
C      -42.93560000     -32.60160000     -72.95160000
S      -42.05550000     -31.21090000     -69.04100000
S      -41.40920000     -32.27270000     -72.08160000
H      -42.66540000     -33.15870000     -73.86220000
