40
Properties=species:S:1:pos:R:3 #=T CELL(abcABC):=T 1.889726e+02=T 90.00000=T Traj:=T positionsangstrom=T Step:=T 0=T Bead:=T pbc="F F F"
C      -45.41120000     -35.08630000     -67.76230000
C      -45.57630000     -35.69880000     -69.01860000
C      -44.47350000     -35.90750000     -69.84100000
C      -43.17990000     -35.54210000     -69.34470000
C      -43.09180000     -34.94560000     -68.05170000
C      -44.20050000     -34.67310000     -67.26080000
H      -46.35210000     -34.92460000     -67.17700000
H      -44.59880000     -36.41220000     -70.79210000
H      -42.07490000     -34.68220000     -67.72430000
H      -44.15110000     -34.32440000     -66.24990000
C      -41.93430000     -35.84740000     -70.24360000
H      -41.65830000     -36.88830000     -70.13690000
H      -41.12730000     -35.26060000     -69.88730000
C      -47.00980000     -36.18280000     -69.31480000
H      -47.16140000     -37.27550000     -69.14960000
H      -47.68750000     -35.59890000     -68.72930000
S      -42.37500000     -35.58700000     -72.05780000
S      -47.44760000     -36.00040000     -71.12530000
C      -42.87430000     -33.82170000     -72.19830000
H      -42.52170000     -33.34490000     -71.19040000
H      -42.45920000     -33.36150000     -73.08400000
C      -47.53830000     -34.15230000     -71.34250000
H      -46.73360000     -33.78140000     -70.71510000
H      -48.46550000     -33.81960000     -70.90120000
C      -47.52100000     -33.61080000     -72.81200000
H      -46.92420000     -34.28610000     -73.46920000
H      -48.54570000     -33.72150000     -73.01350000
C      -44.41560000     -33.62950000     -72.31570000
H      -44.93930000     -34.06080000     -71.50950000
H      -44.80650000     -34.04770000     -73.24500000
C      -44.71610000     -32.08460000     -72.42420000
C      -43.80830000     -31.03780000     -72.31650000
C      -46.02420000     -31.52760000     -72.76000000
H      -42.75960000     -31.14340000     -72.26060000
C      -46.10940000     -30.15480000     -72.73520000
C      -47.30140000     -32.13270000     -72.91400000
C      -48.30430000     -31.23810000     -73.01470000
S      -44.55150000     -29.43120000     -72.39240000
S      -47.71900000     -29.55890000     -72.85710000
H      -49.34790000     -31.45520000     -73.05810000
