40
Properties=species:S:1:pos:R:3 #=T CELL(abcABC):=T 1.889726e+02=T 90.00000=T Traj:=T positionsangstrom=T Step:=T 0=T Bead:=T pbc="F F F"
C      -45.56080000     -36.33290000     -72.46460000
C      -46.78620000     -35.77500000     -72.85080000
C      -47.66670000     -35.43840000     -71.80890000
C      -47.35520000     -35.71200000     -70.46220000
C      -46.10890000     -36.25870000     -70.10310000
C      -45.21550000     -36.62310000     -71.15210000
H      -44.86850000     -36.52120000     -73.24740000
H      -48.60990000     -35.01660000     -72.20970000
H      -45.90660000     -36.45510000     -69.00100000
H      -44.27700000     -37.14590000     -70.93890000
C      -48.19020000     -35.15490000     -69.35740000
H      -47.61810000     -35.31970000     -68.39480000
H      -49.19640000     -35.46690000     -69.41970000
C      -47.14340000     -35.51040000     -74.25110000
H      -46.48580000     -36.05530000     -74.94380000
H      -48.17930000     -35.83440000     -74.46920000
S      -48.48980000     -33.30250000     -69.32570000
S      -47.15890000     -33.75410000     -74.70880000
C      -46.69500000     -32.83990000     -69.21960000
H      -46.37820000     -32.78560000     -68.18360000
H      -46.14200000     -33.67050000     -69.71040000
C      -45.41060000     -33.25890000     -74.20150000
H      -44.94060000     -32.67350000     -74.96650000
H      -44.82140000     -34.24100000     -74.12890000
C      -45.36410000     -32.72910000     -72.79030000
H      -45.97210000     -31.86960000     -72.76010000
H      -45.83680000     -33.49030000     -72.09440000
C      -46.24580000     -31.47320000     -69.77370000
H      -46.55840000     -30.73610000     -69.02810000
H      -46.67440000     -31.10250000     -70.81440000
C      -44.67260000     -31.48130000     -69.79750000
C      -43.93850000     -31.07230000     -68.67920000
C      -43.82580000     -31.74450000     -70.91880000
H      -44.27120000     -30.89830000     -67.60390000
C      -42.44620000     -31.70520000     -70.63540000
C      -44.02570000     -32.31750000     -72.25400000
C      -42.90240000     -32.65890000     -72.91800000
S      -42.19480000     -31.21580000     -68.99470000
S      -41.43820000     -32.20030000     -71.99060000
H      -42.77040000     -32.75690000     -74.01130000
