40
Properties=species:S:1:pos:R:3 #=T CELL(abcABC):=T 1.889726e+02=T 90.00000=T Traj:=T positionsangstrom=T Step:=T 0=T Bead:=T pbc="F F F"
C      -46.15830000     -36.59000000     -72.53110000
C      -47.28020000     -35.73820000     -72.90250000
C      -48.05600000     -35.19110000     -71.91290000
C      -47.86910000     -35.46220000     -70.51350000
C      -46.87940000     -36.39710000     -70.23950000
C      -46.02080000     -36.94030000     -71.16690000
H      -45.52910000     -37.15240000     -73.25460000
H      -48.93470000     -34.55820000     -72.16940000
H      -46.66300000     -36.74820000     -69.15900000
H      -45.25220000     -37.68900000     -70.92930000
C      -48.76850000     -34.81260000     -69.51840000
H      -48.80100000     -35.42680000     -68.57100000
H      -49.84480000     -34.83970000     -69.96120000
C      -47.52560000     -35.29780000     -74.37110000
H      -46.88060000     -35.95440000     -75.00790000
H      -48.56420000     -35.46820000     -74.59590000
S      -48.37250000     -33.01140000     -69.33040000
S      -47.10120000     -33.49710000     -74.68590000
C      -46.57130000     -32.96800000     -69.16130000
H      -46.32210000     -33.35240000     -68.19470000
H      -46.23500000     -33.69940000     -69.78670000
C      -45.36820000     -33.25670000     -74.00330000
H      -44.76720000     -32.71680000     -74.78790000
H      -44.92500000     -34.26130000     -73.85850000
C      -45.24580000     -32.60370000     -72.63140000
H      -45.81460000     -31.63340000     -72.54030000
H      -45.81200000     -33.25130000     -71.82870000
C      -45.83830000     -31.72040000     -69.47990000
H      -46.04360000     -30.99810000     -68.72130000
H      -46.26890000     -31.30680000     -70.40090000
C      -44.28860000     -31.73900000     -69.69910000
C      -43.46970000     -31.22570000     -68.69580000
C      -43.52010000     -32.12550000     -70.82950000
H      -43.88290000     -30.89160000     -67.73100000
C      -42.16920000     -31.87070000     -70.66910000
C      -43.80000000     -32.48950000     -72.18010000
C      -42.67790000     -32.58800000     -72.95490000
S      -41.72700000     -31.33320000     -69.02860000
S      -41.23400000     -32.25450000     -72.05520000
H      -42.63960000     -32.98540000     -73.99450000
