40
Properties=species:S:1:pos:R:3 #=T CELL(abcABC):=T 1.889726e+02=T 90.00000=T Traj:=T positionsangstrom=T Step:=T 0=T Bead:=T pbc="F F F"
C      -45.41540000     -35.08720000     -67.71630000
C      -45.63160000     -35.71850000     -68.91290000
C      -44.56610000     -35.79930000     -69.86540000
C      -43.25490000     -35.45270000     -69.50820000
C      -43.02760000     -34.81680000     -68.32130000
C      -44.07280000     -34.75540000     -67.38440000
H      -46.16770000     -34.93630000     -66.95740000
H      -44.89470000     -36.12780000     -70.86230000
H      -42.03670000     -34.54990000     -68.03090000
H      -43.94250000     -34.27470000     -66.45290000
C      -42.12200000     -35.72580000     -70.38230000
H      -41.72790000     -36.70580000     -70.19940000
H      -41.26500000     -35.02620000     -70.18330000
C      -46.97530000     -36.24270000     -69.40790000
H      -46.93310000     -37.34680000     -69.39880000
H      -47.71000000     -35.92460000     -68.64400000
S      -42.34520000     -35.57160000     -72.17320000
S      -47.41300000     -35.90840000     -71.18280000
C      -42.66800000     -33.79660000     -72.32130000
H      -42.21260000     -33.22400000     -71.46210000
H      -42.21860000     -33.44650000     -73.24230000
C      -47.57370000     -34.08150000     -71.24420000
H      -46.59690000     -33.67090000     -70.88650000
H      -48.46700000     -33.64160000     -70.71620000
C      -47.67530000     -33.66800000     -72.67860000
H      -46.89870000     -34.19770000     -73.27290000
H      -48.63410000     -33.84160000     -73.22090000
C      -44.21450000     -33.57340000     -72.33810000
H      -44.70240000     -34.17820000     -71.53580000
H      -44.60040000     -34.11030000     -73.24370000
C      -44.65380000     -32.10990000     -72.39020000
C      -43.74610000     -31.05100000     -72.38700000
C      -46.04350000     -31.61260000     -72.56470000
H      -42.63400000     -31.11730000     -72.20110000
C      -46.14100000     -30.25760000     -72.61400000
C      -47.35750000     -32.21160000     -72.75530000
C      -48.32200000     -31.28970000     -72.73280000
S      -44.59780000     -29.44670000     -72.47210000
S      -47.79010000     -29.67590000     -72.62590000
H      -49.33570000     -31.54540000     -72.83330000
