40
Properties=species:S:1:pos:R:3 #=T CELL(abcABC):=T 1.889726e+02=T 90.00000=T Traj:=T positionsangstrom=T Step:=T 0=T Bead:=T pbc="F F F"
C      -46.02070000     -33.98340000     -67.85620000
C      -45.97270000     -35.07740000     -68.69170000
C      -44.74080000     -35.61220000     -69.16060000
C      -43.51470000     -35.01710000     -68.81230000
C      -43.54880000     -33.96730000     -67.93070000
C      -44.77470000     -33.42790000     -67.53660000
H      -46.91420000     -33.46340000     -67.62130000
H      -44.86660000     -36.47690000     -69.84390000
H      -42.64830000     -33.38530000     -67.65480000
H      -44.78290000     -32.59680000     -66.86400000
C      -42.24620000     -35.59340000     -69.37150000
H      -42.06560000     -36.55120000     -68.85760000
H      -41.28960000     -35.06430000     -69.00240000
C      -47.25350000     -35.80660000     -69.04910000
H      -47.28330000     -36.78130000     -68.68340000
H      -48.14930000     -35.36690000     -68.59810000
S      -42.26250000     -35.75860000     -71.21600000
S      -47.47320000     -35.94730000     -70.90740000
C      -42.69290000     -34.00000000     -71.63950000
H      -42.35320000     -33.41850000     -70.78950000
H      -42.09370000     -33.74270000     -72.43660000
C      -47.87770000     -34.23510000     -71.47220000
H      -47.34290000     -33.51390000     -70.79450000
H      -48.95120000     -33.94600000     -71.47730000
C      -47.45790000     -34.02830000     -72.96030000
H      -46.57290000     -34.68610000     -73.12330000
H      -48.28090000     -34.29350000     -73.68750000
C      -44.17370000     -33.77220000     -71.93780000
H      -44.78870000     -33.89340000     -71.03240000
H      -44.53830000     -34.50670000     -72.64540000
C      -44.48600000     -32.36960000     -72.43600000
C      -43.54850000     -31.32660000     -72.50670000
C      -45.83830000     -31.95110000     -72.95030000
H      -42.45230000     -31.38670000     -72.27040000
C      -45.79430000     -30.58640000     -73.33880000
C      -47.14830000     -32.56140000     -73.13580000
C      -48.05880000     -31.62940000     -73.61220000
S      -44.22310000     -29.80530000     -73.17590000
S      -47.44610000     -30.05140000     -73.69690000
H      -49.07820000     -31.71690000     -74.14090000
