40
Properties=species:S:1:pos:R:3 #=T CELL(abcABC):=T 1.889726e+02=T 90.00000=T Traj:=T positionsangstrom=T Step:=T 0=T Bead:=T pbc="F F F"
C      -48.74980000     -31.98730000     -70.24430000
C      -48.43940000     -31.79210000     -71.60680000
C      -48.25040000     -32.93740000     -72.39870000
C      -48.45680000     -34.22260000     -71.89240000
C      -48.80050000     -34.40130000     -70.56210000
C      -48.85230000     -33.26650000     -69.71580000
H      -48.80550000     -31.18540000     -69.52720000
H      -47.89790000     -32.78660000     -73.47430000
H      -48.90430000     -35.37670000     -70.16830000
H      -48.94370000     -33.41290000     -68.63800000
C      -48.32930000     -35.41010000     -72.78720000
H      -48.06120000     -35.11570000     -73.82040000
H      -49.26500000     -35.89180000     -72.93910000
C      -48.40200000     -30.47370000     -72.31310000
H      -49.17200000     -30.39780000     -73.15240000
H      -48.68820000     -29.65910000     -71.64690000
S      -47.08660000     -36.68080000     -72.06400000
S      -46.71370000     -30.15560000     -73.00750000
C      -45.65420000     -35.70970000     -71.35640000
H      -46.05280000     -34.83580000     -70.88530000
H      -45.28520000     -36.35950000     -70.55130000
C      -45.36320000     -30.54400000     -71.83510000
H      -45.73690000     -30.41790000     -70.79180000
H      -44.58590000     -29.83650000     -71.98830000
C      -44.83680000     -32.00060000     -71.91920000
H      -45.73640000     -32.62820000     -71.82850000
H      -44.51420000     -32.33390000     -72.93360000
C      -44.53710000     -35.30420000     -72.32720000
H      -44.88560000     -34.53590000     -72.94550000
H      -44.29430000     -36.15950000     -72.98840000
C      -43.28990000     -34.83550000     -71.61870000
C      -42.32540000     -35.79260000     -71.32400000
C      -43.11660000     -33.54820000     -70.93970000
H      -42.18170000     -36.79720000     -71.72480000
C      -41.93100000     -33.63900000     -70.14550000
C      -43.77730000     -32.27840000     -70.95080000
C      -43.12600000     -31.38450000     -70.11880000
S      -41.04550000     -35.14660000     -70.28780000
S      -41.71340000     -32.13480000     -69.37410000
H      -43.45550000     -30.33010000     -70.05660000
