40
Properties=species:S:1:pos:R:3 #=T CELL(abcABC):=T 1.889726e+02=T 90.00000=T Traj:=T positionsangstrom=T Step:=T 0=T Bead:=T pbc="F F F"
C      -46.03920000     -33.93000000     -67.92820000
C      -46.03010000     -35.16470000     -68.63770000
C      -44.80400000     -35.69610000     -69.06580000
C      -43.61530000     -35.01510000     -68.82280000
C      -43.62170000     -33.86430000     -68.06670000
C      -44.80510000     -33.32590000     -67.62820000
H      -46.98430000     -33.37830000     -67.89120000
H      -44.74900000     -36.53160000     -69.71370000
H      -42.67550000     -33.40770000     -67.85360000
H      -44.86150000     -32.38590000     -67.09690000
C      -42.36170000     -35.57840000     -69.32570000
H      -42.21080000     -36.61200000     -68.91840000
H      -41.42180000     -35.03010000     -69.08610000
C      -47.32610000     -35.81970000     -69.04530000
H      -47.20290000     -36.79780000     -68.57180000
H      -48.13020000     -35.23470000     -68.68440000
S      -42.23320000     -35.65740000     -71.25460000
S      -47.42730000     -36.10160000     -70.91620000
C      -42.65870000     -33.93190000     -71.70400000
H      -42.74720000     -33.43240000     -70.81070000
H      -41.85640000     -33.46330000     -72.31060000
C      -47.42380000     -34.33220000     -71.33690000
H      -46.63780000     -33.74910000     -70.82570000
H      -48.39130000     -33.88870000     -71.06740000
C      -47.28350000     -34.14360000     -72.83610000
H      -46.55090000     -34.76980000     -73.38510000
H      -48.29370000     -34.42570000     -73.24470000
C      -44.01550000     -33.74080000     -72.37270000
H      -44.81920000     -34.19990000     -71.79540000
H      -44.17700000     -34.26570000     -73.35680000
C      -44.43300000     -32.31010000     -72.60000000
C      -43.64950000     -31.17540000     -72.36990000
C      -45.79250000     -31.97200000     -72.98600000
H      -42.67530000     -31.17130000     -72.07140000
C      -45.87740000     -30.58030000     -73.19380000
C      -47.07870000     -32.69570000     -73.23620000
C      -47.94420000     -31.79850000     -73.75290000
S      -44.44660000     -29.64550000     -72.89310000
S      -47.47730000     -30.11000000     -73.70700000
H      -48.98220000     -32.03540000     -73.92440000
