40
Properties=species:S:1:pos:R:3 #=T CELL(abcABC):=T 1.889726e+02=T 90.00000=T Traj:=T positionsangstrom=T Step:=T 0=T Bead:=T pbc="F F F"
C      -45.28130000     -30.14510000     -74.16970000
C      -44.76310000     -31.44810000     -74.03160000
C      -43.87210000     -31.75870000     -72.97210000
C      -43.42350000     -30.67280000     -72.16420000
C      -44.10380000     -29.41440000     -72.25830000
C      -45.11360000     -29.19210000     -73.14650000
H      -45.83410000     -29.88460000     -75.05440000
H      -43.60230000     -32.77910000     -72.74260000
H      -44.00840000     -28.79670000     -71.38840000
H      -45.69850000     -28.32720000     -73.07680000
C      -42.44350000     -30.99290000     -71.12330000
H      -42.05250000     -30.11040000     -70.60400000
H      -41.57010000     -31.52220000     -71.56650000
C      -45.32990000     -32.46310000     -74.99140000
H      -45.34270000     -32.03790000     -75.94070000
H      -44.78500000     -33.37310000     -75.06040000
S      -43.11940000     -32.22090000     -69.81600000
S      -47.12490000     -32.80110000     -74.55480000
C      -44.72080000     -31.42940000     -69.48680000
H      -44.79280000     -31.26370000     -68.43920000
H      -44.88540000     -30.43960000     -69.90540000
C      -47.08120000     -34.51680000     -73.77360000
H      -46.17980000     -34.96210000     -74.03750000
H      -47.86760000     -35.01090000     -74.29000000
C      -47.32060000     -34.29470000     -72.24640000
H      -46.90600000     -33.32910000     -71.94350000
H      -48.43810000     -34.29670000     -72.11170000
C      -45.78070000     -32.41980000     -69.96470000
H      -45.59120000     -32.50050000     -71.03640000
H      -46.76040000     -32.05310000     -69.74950000
C      -45.64940000     -33.77260000     -69.38140000
C      -45.02990000     -34.02290000     -68.22720000
C      -46.15540000     -34.97120000     -70.00260000
H      -44.43520000     -33.35490000     -67.69640000
C      -45.80770000     -36.11080000     -69.26680000
C      -46.74520000     -35.30380000     -71.28050000
C      -46.81580000     -36.70220000     -71.47520000
S      -44.88370000     -35.70090000     -67.79110000
S      -46.12410000     -37.63030000     -70.14000000
H      -47.11920000     -37.19820000     -72.39030000
