40
Properties=species:S:1:pos:R:3 #=T CELL(abcABC):=T 1.889726e+02=T 90.00000=T Traj:=T positionsangstrom=T Step:=T 0=T Bead:=T pbc="F F F"
C      -45.49180000     -33.53780000     -67.97770000
C      -45.86200000     -34.76760000     -68.50510000
C      -44.86960000     -35.58120000     -69.07570000
C      -43.51860000     -35.16070000     -69.18440000
C      -43.15970000     -33.96880000     -68.58880000
C      -44.16910000     -33.17150000     -68.00050000
H      -46.22020000     -32.92690000     -67.55630000
H      -45.18280000     -36.55140000     -69.50460000
H      -42.25100000     -33.48090000     -68.72670000
H      -43.76840000     -32.17090000     -67.57830000
C      -42.50450000     -36.04710000     -69.85040000
H      -42.58570000     -37.08230000     -69.49840000
H      -41.50960000     -35.75070000     -69.66900000
C      -47.24480000     -35.25530000     -68.54310000
H      -47.31080000     -36.19350000     -67.97800000
H      -48.06680000     -34.61420000     -68.05320000
S      -42.71060000     -36.27350000     -71.72720000
S      -47.77550000     -35.55020000     -70.31790000
C      -42.97800000     -34.55370000     -72.38530000
H      -42.41700000     -33.91220000     -71.70200000
H      -42.46950000     -34.43440000     -73.34230000
C      -47.38060000     -33.86660000     -71.00740000
H      -46.33180000     -33.78680000     -70.80360000
H      -47.86150000     -33.02490000     -70.49900000
C      -47.67280000     -33.78290000     -72.49680000
H      -47.15040000     -34.64120000     -73.03660000
H      -48.71020000     -33.96520000     -72.73350000
C      -44.39770000     -34.10970000     -72.48600000
H      -44.77820000     -34.32930000     -71.47440000
H      -44.98500000     -34.68290000     -73.22630000
C      -44.57650000     -32.64270000     -72.79390000
C      -43.52170000     -31.79580000     -72.85720000
C      -45.85940000     -31.99480000     -72.92250000
H      -42.42040000     -32.04280000     -72.75480000
C      -45.68220000     -30.58850000     -73.12970000
C      -47.23720000     -32.39650000     -72.90170000
C      -48.07430000     -31.32140000     -73.15040000
S      -44.03870000     -30.14960000     -73.16670000
S      -47.27440000     -29.73130000     -73.18180000
H      -49.18610000     -31.48370000     -73.18730000
