40
Properties=species:S:1:pos:R:3 #=T CELL(abcABC):=T 1.889726e+02=T 90.00000=T Traj:=T positionsangstrom=T Step:=T 0=T Bead:=T pbc="F F F"
C      -45.12780000     -33.51020000     -68.01050000
C      -45.66720000     -34.64290000     -68.64610000
C      -44.85630000     -35.54910000     -69.28490000
C      -43.44620000     -35.39790000     -69.37610000
C      -42.91380000     -34.27010000     -68.64730000
C      -43.74570000     -33.33390000     -68.00820000
H      -45.75560000     -32.75290000     -67.43360000
H      -45.26200000     -36.42180000     -69.83490000
H      -41.77900000     -34.08660000     -68.63980000
H      -43.34830000     -32.41580000     -67.61030000
C      -42.61640000     -36.37400000     -70.08430000
H      -42.70890000     -37.35290000     -69.63300000
H      -41.55570000     -36.24380000     -69.99340000
C      -47.14820000     -34.92340000     -68.42480000
H      -47.41310000     -35.88170000     -67.85480000
H      -47.62020000     -34.14180000     -67.84720000
S      -43.00660000     -36.45220000     -71.92030000
S      -48.26340000     -35.21680000     -69.95690000
C      -42.90850000     -34.61460000     -72.27510000
H      -42.23700000     -34.21800000     -71.46920000
H      -42.45880000     -34.36740000     -73.18920000
C      -48.30520000     -33.63380000     -70.86950000
H      -47.99640000     -32.77580000     -70.29650000
H      -49.35740000     -33.49890000     -71.09770000
C      -47.50330000     -33.77900000     -72.12550000
H      -46.58820000     -34.33830000     -71.93970000
H      -48.03900000     -34.33500000     -72.95620000
C      -44.30210000     -34.03650000     -72.19250000
H      -44.68150000     -34.08580000     -71.18010000
H      -45.00560000     -34.62970000     -72.82910000
C      -44.39530000     -32.55980000     -72.59670000
C      -43.42120000     -31.64410000     -72.62700000
C      -45.72040000     -31.96760000     -72.87560000
H      -42.37470000     -31.83320000     -72.63320000
C      -45.59980000     -30.68730000     -73.35800000
C      -47.11650000     -32.38310000     -72.71600000
C      -47.95690000     -31.34130000     -73.11480000
S      -43.94770000     -30.09780000     -73.21270000
S      -47.12530000     -29.90890000     -73.59320000
H      -48.99720000     -31.34850000     -73.10260000
