40
Properties=species:S:1:pos:R:3 #=T CELL(abcABC):=T 1.889726e+02=T 90.00000=T Traj:=T positionsangstrom=T Step:=T 0=T Bead:=T pbc="F F F"
C      -48.86720000     -32.03260000     -70.28910000
C      -48.51780000     -31.85840000     -71.66670000
C      -48.34780000     -33.06170000     -72.44270000
C      -48.54110000     -34.31970000     -71.90180000
C      -48.88510000     -34.40180000     -70.53690000
C      -49.06470000     -33.28760000     -69.74070000
H      -48.94980000     -31.22830000     -69.60990000
H      -47.99870000     -32.90070000     -73.51990000
H      -49.04530000     -35.43910000     -70.20740000
H      -49.49330000     -33.38500000     -68.79050000
C      -48.26950000     -35.53940000     -72.71490000
H      -47.99660000     -35.11490000     -73.67760000
H      -49.15100000     -36.21170000     -72.89220000
C      -48.23290000     -30.40400000     -72.17750000
H      -49.01130000     -30.04650000     -72.84230000
H      -48.31560000     -29.79910000     -71.26570000
S      -47.01890000     -36.75420000     -72.02470000
S      -46.67440000     -30.19750000     -73.16060000
C      -45.67580000     -35.55600000     -71.29510000
H      -46.13190000     -34.65330000     -70.88280000
H      -45.24600000     -36.11610000     -70.43660000
C      -45.47490000     -30.50310000     -71.76890000
H      -45.86770000     -30.17220000     -70.73350000
H      -44.64240000     -29.91350000     -72.08830000
C      -45.08070000     -31.95940000     -71.62240000
H      -45.77200000     -32.54350000     -71.00110000
H      -44.91940000     -32.38530000     -72.59830000
C      -44.50890000     -35.22020000     -72.37260000
H      -44.98190000     -34.49820000     -73.02780000
H      -44.27930000     -36.11180000     -73.04620000
C      -43.26390000     -34.79950000     -71.59330000
C      -42.29520000     -35.75020000     -71.34750000
C      -43.09850000     -33.53290000     -70.93080000
H      -42.27220000     -36.75070000     -71.85690000
C      -41.92050000     -33.61870000     -70.17730000
C      -43.72050000     -32.21580000     -70.93060000
C      -43.01350000     -31.33560000     -70.12010000
S      -40.98770000     -35.12020000     -70.37510000
S      -41.64320000     -32.10880000     -69.38730000
H      -43.42380000     -30.35070000     -69.85080000
