40
Properties=species:S:1:pos:R:3 #=T CELL(abcABC):=T 1.889726e+02=T 90.00000=T Traj:=T positionsangstrom=T Step:=T 0=T Bead:=T pbc="F F F"
C      -45.66030000     -33.69750000     -68.01390000
C      -45.86670000     -34.95980000     -68.62110000
C      -44.75060000     -35.66890000     -69.07680000
C      -43.49290000     -35.06710000     -69.18020000
C      -43.39080000     -33.68720000     -68.75680000
C      -44.41310000     -33.06850000     -68.08050000
H      -46.46850000     -33.29390000     -67.47510000
H      -44.76050000     -36.68860000     -69.48960000
H      -42.40290000     -33.23530000     -68.60650000
H      -44.30990000     -32.07170000     -67.67110000
C      -42.32490000     -35.83940000     -69.74100000
H      -41.89850000     -36.75630000     -69.19460000
H      -41.38320000     -35.24100000     -69.66030000
C      -47.28640000     -35.48900000     -68.68590000
H      -47.33380000     -36.47190000     -68.24060000
H      -47.98110000     -34.82680000     -68.16750000
S      -42.62750000     -36.23770000     -71.55270000
S      -47.72540000     -35.64660000     -70.44470000
C      -42.84300000     -34.48670000     -72.16710000
H      -42.62460000     -33.71950000     -71.41720000
H      -42.12490000     -34.32220000     -73.01600000
C      -47.61390000     -33.87780000     -70.91940000
H      -46.63360000     -33.46250000     -70.65950000
H      -48.34720000     -33.23790000     -70.38830000
C      -47.81570000     -33.72670000     -72.44450000
H      -47.45170000     -34.48130000     -73.09530000
H      -48.93090000     -33.78130000     -72.55330000
C      -44.22740000     -34.20780000     -72.69430000
H      -44.96720000     -34.54880000     -71.95420000
H      -44.32440000     -34.73320000     -73.68800000
C      -44.51010000     -32.68060000     -72.90560000
C      -43.52260000     -31.70640000     -72.94700000
C      -45.84700000     -32.07180000     -72.96570000
H      -42.43000000     -31.80340000     -72.79470000
C      -45.66740000     -30.68010000     -73.15040000
C      -47.24830000     -32.35880000     -72.81680000
C      -48.04620000     -31.23480000     -72.88920000
S      -44.12950000     -30.09540000     -73.06310000
S      -47.18350000     -29.77650000     -73.27310000
H      -49.18460000     -31.15490000     -72.77420000
