40
Properties=species:S:1:pos:R:3 #=T CELL(abcABC):=T 1.889726e+02=T 90.00000=T Traj:=T positionsangstrom=T Step:=T 0=T Bead:=T pbc="F F F"
C      -45.01930000     -33.86030000     -67.65620000
C      -45.73880000     -34.79910000     -68.47470000
C      -45.05800000     -35.64900000     -69.36720000
C      -43.66440000     -35.61900000     -69.48020000
C      -42.99600000     -34.78420000     -68.59050000
C      -43.63390000     -33.84970000     -67.75890000
H      -45.58230000     -33.19960000     -66.94200000
H      -45.69880000     -36.26750000     -69.91800000
H      -41.87890000     -34.76920000     -68.72140000
H      -43.04130000     -33.27810000     -67.12330000
C      -42.86080000     -36.61530000     -70.25540000
H      -43.00670000     -37.59980000     -69.82510000
H      -41.78450000     -36.42320000     -70.07040000
C      -47.26360000     -35.04180000     -68.27360000
H      -47.43010000     -36.05730000     -67.90210000
H      -47.64730000     -34.39300000     -67.51470000
S      -43.21880000     -36.60130000     -72.05720000
S      -48.35500000     -34.92170000     -69.83200000
C      -42.95450000     -34.79400000     -72.40720000
H      -42.35250000     -34.28050000     -71.69710000
H      -42.46930000     -34.76650000     -73.47370000
C      -47.80470000     -33.33280000     -70.64760000
H      -46.83110000     -33.10550000     -70.19440000
H      -48.48830000     -32.53210000     -70.32130000
C      -47.74530000     -33.33740000     -72.18150000
H      -47.26730000     -34.17850000     -72.62420000
H      -48.76780000     -33.32760000     -72.57200000
C      -44.41830000     -34.13710000     -72.42910000
H      -44.91610000     -34.21990000     -71.48780000
H      -45.12510000     -34.64240000     -73.11720000
C      -44.45700000     -32.63810000     -72.73140000
C      -43.38760000     -31.83620000     -72.98770000
C      -45.71260000     -31.85940000     -72.88700000
H      -42.35640000     -32.18580000     -73.00410000
C      -45.45840000     -30.54950000     -73.32080000
C      -47.09980000     -32.09040000     -72.66880000
C      -47.85870000     -30.90970000     -72.77530000
S      -43.77260000     -30.12700000     -73.51300000
S      -46.83910000     -29.58730000     -73.41620000
H      -49.00500000     -30.88460000     -72.77490000
