40
Properties=species:S:1:pos:R:3 #=T CELL(abcABC):=T 1.889726e+02=T 90.00000=T Traj:=T positionsangstrom=T Step:=T 0=T Bead:=T pbc="F F F"
C      -44.93710000     -34.06800000     -67.55980000
C      -45.73790000     -34.96680000     -68.31810000
C      -45.11540000     -35.86000000     -69.27710000
C      -43.71380000     -35.74430000     -69.38610000
C      -42.95780000     -34.88800000     -68.58300000
C      -43.57870000     -34.03420000     -67.71720000
H      -45.36670000     -33.38490000     -66.77980000
H      -45.70070000     -36.63060000     -69.74160000
H      -41.82760000     -34.84130000     -68.68410000
H      -42.92720000     -33.42530000     -67.18660000
C      -42.96180000     -36.61290000     -70.44860000
H      -42.94550000     -37.69840000     -70.20340000
H      -41.94680000     -36.24520000     -70.57700000
C      -47.22870000     -34.96630000     -68.13810000
H      -47.51790000     -35.93960000     -67.67520000
H      -47.58620000     -34.15620000     -67.59300000
S      -43.76970000     -36.72090000     -72.13510000
S      -48.24900000     -34.79080000     -69.75240000
C      -43.67570000     -35.07000000     -72.83870000
H      -42.67450000     -34.81930000     -73.04050000
H      -44.16330000     -34.96420000     -73.77270000
C      -47.70220000     -32.98300000     -70.18860000
H      -46.64660000     -32.86980000     -69.84330000
H      -48.37120000     -32.28730000     -69.62930000
C      -47.74070000     -32.91680000     -71.76710000
H      -47.28850000     -33.90900000     -72.04790000
H      -48.77830000     -32.94510000     -72.20110000
C      -44.28390000     -33.98010000     -71.98070000
H      -43.74900000     -33.88270000     -70.98800000
H      -45.25060000     -34.34130000     -71.82080000
C      -44.40580000     -32.57680000     -72.65570000
C      -43.30980000     -32.03480000     -73.26430000
C      -45.58830000     -31.67300000     -72.62520000
H      -42.40030000     -32.55210000     -73.52570000
C      -45.25240000     -30.54150000     -73.34780000
C      -47.00890000     -31.76350000     -72.45040000
C      -47.64250000     -30.58670000     -72.81520000
S      -43.67700000     -30.54570000     -74.03910000
S      -46.59350000     -29.37140000     -73.50770000
H      -48.66750000     -30.32940000     -72.62990000
