40
Properties=species:S:1:pos:R:3 #=T CELL(abcABC):=T 1.889726e+02=T 90.00000=T Traj:=T positionsangstrom=T Step:=T 0=T Bead:=T pbc="F F F"
C      -45.09150000     -34.04550000     -67.53330000
C      -45.77050000     -34.92600000     -68.34230000
C      -45.08430000     -35.78810000     -69.21850000
C      -43.69250000     -35.71260000     -69.40310000
C      -43.00200000     -34.77590000     -68.61450000
C      -43.71840000     -33.95760000     -67.71970000
H      -45.59430000     -33.39730000     -66.85410000
H      -45.66480000     -36.54000000     -69.71960000
H      -41.97260000     -34.66160000     -68.65470000
H      -43.32240000     -33.17370000     -67.04270000
C      -42.91860000     -36.57560000     -70.33270000
H      -43.28350000     -37.58530000     -70.08880000
H      -41.85470000     -36.47150000     -70.31950000
C      -47.28650000     -34.95600000     -68.31620000
H      -47.80670000     -35.85650000     -67.87120000
H      -47.65430000     -34.07130000     -67.77690000
S      -43.35760000     -36.57030000     -72.09790000
S      -48.04250000     -34.98950000     -69.95280000
C      -43.30200000     -34.80310000     -72.66020000
H      -42.47560000     -34.22230000     -72.29880000
H      -43.23860000     -34.87170000     -73.78520000
C      -47.71910000     -33.21610000     -70.46860000
H      -46.72080000     -33.04650000     -69.98250000
H      -48.44080000     -32.51310000     -70.02520000
C      -47.73040000     -33.17830000     -71.99790000
H      -47.25510000     -34.13520000     -72.29200000
H      -48.79040000     -33.28760000     -72.30720000
C      -44.63580000     -34.04690000     -72.28660000
H      -44.72180000     -34.10270000     -71.20060000
H      -45.53870000     -34.48000000     -72.68890000
C      -44.57180000     -32.61620000     -72.70080000
C      -43.44320000     -31.96240000     -73.10600000
C      -45.68170000     -31.73860000     -72.79760000
H      -42.39270000     -32.24900000     -72.90420000
C      -45.36380000     -30.40890000     -73.16390000
C      -47.05030000     -32.00030000     -72.58520000
C      -47.79510000     -30.88740000     -73.01650000
S      -43.64610000     -30.23840000     -73.55980000
S      -46.80680000     -29.50250000     -73.46400000
H      -48.85480000     -30.70880000     -72.82760000
