40
Properties=species:S:1:pos:R:3 #=T CELL(abcABC):=T 1.889726e+02=T 90.00000=T Traj:=T positionsangstrom=T Step:=T 0=T Bead:=T pbc="F F F"
C      -44.98840000     -34.21700000     -67.38730000
C      -45.76590000     -34.96250000     -68.31250000
C      -45.21720000     -35.69310000     -69.38760000
C      -43.82360000     -35.59760000     -69.55420000
C      -43.01500000     -34.86140000     -68.68350000
C      -43.60260000     -34.11640000     -67.66610000
H      -45.47090000     -33.63250000     -66.64210000
H      -45.74900000     -36.13950000     -70.16080000
H      -41.93880000     -34.79780000     -68.70850000
H      -43.00480000     -33.42140000     -67.04330000
C      -43.21860000     -36.58100000     -70.54430000
H      -43.14750000     -37.59590000     -70.10060000
H      -42.17330000     -36.33380000     -70.66170000
C      -47.22480000     -34.94570000     -68.05450000
H      -47.60200000     -35.89780000     -67.71210000
H      -47.42420000     -34.21430000     -67.20680000
S      -43.86790000     -36.73220000     -72.22130000
S      -48.31140000     -34.57220000     -69.46830000
C      -43.73430000     -34.93890000     -72.86200000
H      -42.62500000     -34.89770000     -73.05610000
H      -44.22260000     -34.88240000     -73.87660000
C      -47.49100000     -33.06220000     -70.15460000
H      -46.44640000     -33.07510000     -69.89620000
H      -47.97100000     -32.21480000     -69.69720000
C      -47.60430000     -33.02440000     -71.70810000
H      -47.20020000     -33.90630000     -72.15460000
H      -48.63670000     -32.90970000     -71.90760000
C      -44.20810000     -33.88010000     -71.92900000
H      -43.60530000     -33.72640000     -71.02480000
H      -45.19850000     -34.13760000     -71.44860000
C      -44.29410000     -32.59590000     -72.73660000
C      -43.25360000     -32.13640000     -73.44540000
C      -45.50040000     -31.76420000     -72.86020000
H      -42.25680000     -32.58450000     -73.46320000
C      -45.26670000     -30.63110000     -73.67000000
C      -46.85160000     -31.80780000     -72.27540000
C      -47.49000000     -30.60850000     -72.45200000
S      -43.59370000     -30.59340000     -74.13390000
S      -46.64440000     -29.48820000     -73.52220000
H      -48.53140000     -30.34110000     -72.16750000
