40
Properties=species:S:1:pos:R:3 #=T CELL(abcABC):=T 1.889726e+02=T 90.00000=T Traj:=T positionsangstrom=T Step:=T 0=T Bead:=T pbc="F F F"
C      -45.10910000     -34.06620000     -67.53870000
C      -45.73470000     -35.08690000     -68.27230000
C      -45.01010000     -35.91110000     -69.10010000
C      -43.63290000     -35.70480000     -69.31270000
C      -43.00350000     -34.71840000     -68.56480000
C      -43.75210000     -33.92190000     -67.64560000
H      -45.54230000     -33.29700000     -66.94440000
H      -45.62740000     -36.69830000     -69.66100000
H      -41.97420000     -34.56360000     -68.66550000
H      -43.19370000     -33.12660000     -67.08550000
C      -42.99380000     -36.65990000     -70.37510000
H      -42.99610000     -37.70060000     -69.96220000
H      -41.91610000     -36.42570000     -70.37250000
C      -47.23290000     -35.18410000     -68.21380000
H      -47.53220000     -36.18650000     -67.88800000
H      -47.71610000     -34.40780000     -67.56170000
S      -43.71400000     -36.63360000     -72.08750000
S      -47.95910000     -34.98720000     -69.97040000
C      -43.33520000     -34.89230000     -72.53990000
H      -42.39570000     -34.50700000     -72.10720000
H      -43.18640000     -34.96900000     -73.58620000
C      -47.27770000     -33.36860000     -70.59830000
H      -46.21800000     -33.45890000     -70.66660000
H      -47.53830000     -32.53800000     -69.90210000
C      -47.86690000     -33.01050000     -71.95820000
H      -47.87420000     -33.81230000     -72.71110000
H      -48.91500000     -32.73720000     -71.84720000
C      -44.58470000     -34.03630000     -72.22310000
H      -44.69750000     -33.96790000     -71.11120000
H      -45.49770000     -34.58100000     -72.62800000
C      -44.57150000     -32.58000000     -72.73480000
C      -43.41480000     -31.89000000     -73.04920000
C      -45.72360000     -31.72890000     -72.91630000
H      -42.36990000     -32.18030000     -72.89770000
C      -45.37270000     -30.44000000     -73.32120000
C      -47.12090000     -31.85380000     -72.57660000
C      -47.76540000     -30.62950000     -72.86860000
S      -43.63290000     -30.26270000     -73.63180000
S      -46.73100000     -29.37800000     -73.56760000
H      -48.76590000     -30.42160000     -72.63580000
