40
Properties=species:S:1:pos:R:3 #=T CELL(abcABC):=T 1.889726e+02=T 90.00000=T Traj:=T positionsangstrom=T Step:=T 0=T Bead:=T pbc="F F F"
C      -44.93700000     -34.09730000     -67.40090000
C      -45.75860000     -34.97940000     -68.18090000
C      -45.28430000     -35.83400000     -69.19970000
C      -43.89440000     -35.71220000     -69.48640000
C      -43.01950000     -34.93220000     -68.67220000
C      -43.50920000     -34.11350000     -67.66490000
H      -45.35790000     -33.36910000     -66.71690000
H      -46.02830000     -36.42980000     -69.77060000
H      -42.01490000     -34.83930000     -68.99520000
H      -42.91710000     -33.39510000     -67.04610000
C      -43.22590000     -36.55920000     -70.47920000
H      -43.11600000     -37.56510000     -70.03800000
H      -42.22230000     -36.09210000     -70.71300000
C      -47.23380000     -34.99870000     -67.95620000
H      -47.62760000     -35.95480000     -67.81510000
H      -47.49990000     -34.40760000     -67.05940000
S      -44.11670000     -36.79830000     -72.12420000
S      -48.25110000     -34.38010000     -69.32080000
C      -43.76970000     -35.23310000     -73.04620000
H      -42.71560000     -35.18750000     -73.16090000
H      -44.26960000     -35.26130000     -73.97980000
C      -47.25070000     -33.09420000     -70.13560000
H      -46.18350000     -33.20170000     -69.86800000
H      -47.44540000     -32.09520000     -69.73300000
C      -47.46890000     -32.97830000     -71.63280000
H      -47.15440000     -33.88970000     -72.23880000
H      -48.54800000     -32.94150000     -71.94220000
C      -44.22560000     -33.93550000     -72.24090000
H      -43.71390000     -34.06880000     -71.32050000
H      -45.29190000     -34.18150000     -72.00370000
C      -44.24210000     -32.57580000     -72.86080000
C      -43.27780000     -32.06090000     -73.64440000
C      -45.43020000     -31.77570000     -72.79820000
H      -42.28530000     -32.48390000     -73.85370000
C      -45.22230000     -30.58060000     -73.49510000
C      -46.76650000     -31.80720000     -72.26640000
C      -47.50930000     -30.72550000     -72.66210000
S      -43.68040000     -30.49220000     -74.26830000
S      -46.57450000     -29.46520000     -73.52790000
H      -48.52510000     -30.51920000     -72.33340000
