40
Properties=species:S:1:pos:R:3 #=T CELL(abcABC):=T 1.889726e+02=T 90.00000=T Traj:=T positionsangstrom=T Step:=T 0=T Bead:=T pbc="F F F"
C      -44.80780000     -34.07460000     -67.62820000
C      -45.72090000     -35.00230000     -68.18140000
C      -45.25320000     -35.95750000     -69.11960000
C      -43.86060000     -35.98390000     -69.41290000
C      -42.92070000     -35.15880000     -68.75610000
C      -43.42680000     -34.12490000     -67.91860000
H      -45.27950000     -33.30480000     -66.96650000
H      -45.93820000     -36.53710000     -69.70510000
H      -41.83850000     -35.15530000     -68.95470000
H      -42.78480000     -33.35150000     -67.53090000
C      -43.41300000     -36.88880000     -70.50640000
H      -43.41860000     -37.95160000     -70.24870000
H      -42.46180000     -36.70030000     -70.92340000
C      -47.13540000     -34.86720000     -67.84660000
H      -47.59240000     -35.85110000     -67.70140000
H      -47.27920000     -34.20860000     -66.98670000
S      -44.52300000     -36.84830000     -72.13220000
S      -48.16670000     -34.12420000     -69.21860000
C      -44.03530000     -35.26330000     -72.84050000
H      -42.98370000     -35.33120000     -73.14130000
H      -44.52120000     -35.18430000     -73.84680000
C      -47.11400000     -32.80280000     -70.11770000
H      -46.08290000     -33.03120000     -69.99380000
H      -47.40830000     -31.87270000     -69.60000000
C      -47.52250000     -32.75860000     -71.60220000
H      -47.30000000     -33.72220000     -72.06410000
H      -48.61340000     -32.52740000     -71.68560000
C      -44.39720000     -34.01790000     -72.02660000
H      -43.70320000     -34.11480000     -71.20370000
H      -45.35930000     -34.07190000     -71.62070000
C      -44.30060000     -32.67730000     -72.85440000
C      -43.20670000     -32.12000000     -73.50280000
C      -45.38270000     -31.77000000     -72.85050000
H      -42.26370000     -32.55260000     -73.72400000
C      -45.12610000     -30.62590000     -73.56920000
C      -46.74590000     -31.68850000     -72.34790000
C      -47.35860000     -30.46520000     -72.57040000
S      -43.58740000     -30.64910000     -74.37590000
S      -46.44870000     -29.42480000     -73.59320000
H      -48.36140000     -30.22550000     -72.22270000
