40
Properties=species:S:1:pos:R:3 #=T CELL(abcABC):=T 1.889726e+02=T 90.00000=T Traj:=T positionsangstrom=T Step:=T 0=T Bead:=T pbc="F F F"
C      -44.82500000     -34.14840000     -67.47340000
C      -45.70140000     -35.04910000     -68.15830000
C      -45.25570000     -35.97350000     -69.11140000
C      -43.87670000     -35.87290000     -69.34090000
C      -42.97250000     -34.93650000     -68.78140000
C      -43.49210000     -34.10750000     -67.77730000
H      -45.34440000     -33.58300000     -66.64990000
H      -45.98820000     -36.69480000     -69.50230000
H      -41.98840000     -35.00280000     -69.13980000
H      -42.86700000     -33.42250000     -67.19260000
C      -43.35350000     -36.76010000     -70.45640000
H      -43.44780000     -37.82380000     -70.11700000
H      -42.28490000     -36.57010000     -70.67250000
C      -47.18330000     -34.95140000     -67.85860000
H      -47.61210000     -36.01030000     -67.78980000
H      -47.39810000     -34.43290000     -66.94020000
S      -44.29080000     -36.79740000     -72.04870000
S      -48.20980000     -34.13880000     -69.28730000
C      -43.87520000     -35.21940000     -72.99000000
H      -42.82460000     -35.16150000     -73.30740000
H      -44.38390000     -35.36710000     -73.98000000
C      -47.06450000     -32.97050000     -70.10520000
H      -46.04770000     -33.35550000     -69.95440000
H      -47.12660000     -31.99280000     -69.56860000
C      -47.44540000     -32.91080000     -71.54700000
H      -47.17470000     -33.85040000     -71.94410000
H      -48.51970000     -32.90270000     -71.56480000
C      -44.24150000     -33.95420000     -72.18740000
H      -43.46810000     -33.60820000     -71.41500000
H      -45.22080000     -34.11280000     -71.73720000
C      -44.38110000     -32.74260000     -73.10380000
C      -43.31710000     -32.22020000     -73.78570000
C      -45.49360000     -31.78530000     -72.97960000
H      -42.32210000     -32.66540000     -73.81920000
C      -45.20700000     -30.53820000     -73.60610000
C      -46.84480000     -31.78680000     -72.36980000
C      -47.50860000     -30.62230000     -72.68410000
S      -43.62390000     -30.51910000     -74.22340000
S      -46.50560000     -29.43760000     -73.52620000
H      -48.51020000     -30.42310000     -72.36000000
