40
Properties=species:S:1:pos:R:3 #=T CELL(abcABC):=T 1.889726e+02=T 90.00000=T Traj:=T positionsangstrom=T Step:=T 0=T Bead:=T pbc="F F F"
C      -44.23430000     -33.88030000     -67.83960000
C      -45.32100000     -34.61180000     -68.29630000
C      -45.06450000     -35.62360000     -69.28810000
C      -43.77110000     -36.09770000     -69.68310000
C      -42.73870000     -35.31950000     -69.09640000
C      -42.95400000     -34.22770000     -68.29250000
H      -44.23320000     -33.06660000     -67.19300000
H      -45.90640000     -36.13110000     -69.76530000
H      -41.75080000     -35.69110000     -69.37730000
H      -42.01630000     -33.69950000     -67.98240000
C      -43.54390000     -37.21050000     -70.61670000
H      -43.90580000     -38.14170000     -70.22720000
H      -42.48820000     -37.38170000     -70.85520000
C      -46.72380000     -34.29050000     -67.78040000
H      -47.04970000     -35.06620000     -67.18310000
H      -46.80510000     -33.36250000     -67.23040000
S      -44.34150000     -36.98070000     -72.29120000
S      -48.01770000     -34.06950000     -69.17150000
C      -43.96520000     -35.21150000     -72.56420000
H      -43.45410000     -34.90660000     -71.66970000
H      -43.22420000     -35.12980000     -73.35610000
C      -47.33490000     -32.65690000     -70.14210000
H      -46.25490000     -32.88320000     -70.13570000
H      -47.61550000     -31.61710000     -69.70620000
C      -47.86530000     -32.66980000     -71.57830000
H      -47.67270000     -33.69610000     -71.97870000
H      -48.95730000     -32.51480000     -71.61810000
C      -45.18640000     -34.42000000     -72.86840000
H      -45.88490000     -34.49150000     -72.03910000
H      -45.83490000     -34.69620000     -73.67830000
C      -44.87320000     -32.95310000     -73.11600000
C      -43.65000000     -32.46300000     -73.55130000
C      -45.80980000     -31.85020000     -72.95710000
H      -42.79660000     -33.07370000     -73.71390000
C      -45.19950000     -30.63840000     -73.33450000
C      -47.13320000     -31.61550000     -72.39840000
C      -47.50570000     -30.33670000     -72.39490000
S      -43.51650000     -30.77630000     -73.78980000
S      -46.38430000     -29.28820000     -73.21190000
H      -48.49720000     -30.00990000     -72.04670000
