40
Properties=species:S:1:pos:R:3 #=T CELL(abcABC):=T 1.889726e+02=T 90.00000=T Traj:=T positionsangstrom=T Step:=T 0=T Bead:=T pbc="F F F"
C      -44.65650000     -34.13470000     -67.63910000
C      -45.66930000     -34.87570000     -68.21800000
C      -45.30210000     -35.82250000     -69.19940000
C      -43.93110000     -35.99650000     -69.48750000
C      -42.90460000     -35.16730000     -68.98280000
C      -43.30200000     -34.14890000     -68.15950000
H      -44.85910000     -33.42100000     -66.86280000
H      -46.02160000     -36.47290000     -69.58620000
H      -41.85250000     -35.35690000     -69.30640000
H      -42.51550000     -33.42520000     -67.82220000
C      -43.62050000     -37.07760000     -70.57520000
H      -43.92610000     -38.04600000     -70.15620000
H      -42.51520000     -37.06650000     -70.71510000
C      -47.17050000     -34.78030000     -67.86370000
H      -47.48080000     -35.73130000     -67.51320000
H      -47.35380000     -34.11730000     -66.97960000
S      -44.55460000     -36.76510000     -72.11830000
S      -48.21360000     -34.23440000     -69.28640000
C      -43.98550000     -35.21540000     -72.78650000
H      -42.88760000     -35.23500000     -72.88410000
H      -44.58250000     -35.23390000     -73.68790000
C      -47.30690000     -32.75140000     -69.88890000
H      -46.22560000     -32.66020000     -69.66000000
H      -47.72980000     -31.85470000     -69.36960000
C      -47.50320000     -32.60670000     -71.46500000
H      -47.29320000     -33.62930000     -71.91920000
H      -48.55750000     -32.39210000     -71.65600000
C      -44.30450000     -33.95880000     -71.95310000
H      -43.56520000     -33.66010000     -71.21290000
H      -45.17100000     -34.11400000     -71.31600000
C      -44.41160000     -32.73020000     -72.78390000
C      -43.34260000     -32.39260000     -73.57200000
C      -45.39910000     -31.69790000     -72.81190000
H      -42.49010000     -33.03540000     -73.64620000
C      -45.00120000     -30.56880000     -73.50510000
C      -46.77610000     -31.55140000     -72.23020000
C      -47.43680000     -30.43110000     -72.67800000
S      -43.50140000     -30.78300000     -74.28920000
S      -46.33450000     -29.39260000     -73.61600000
H      -48.50380000     -30.19800000     -72.38620000
