40
Properties=species:S:1:pos:R:3 #=T CELL(abcABC):=T 1.889726e+02=T 90.00000=T Traj:=T positionsangstrom=T Step:=T 0=T Bead:=T pbc="F F F"
C      -49.97020000     -33.44020000     -71.05880000
C      -48.92200000     -34.30700000     -70.63000000
C      -48.01700000     -34.85640000     -71.56400000
C      -48.26230000     -34.63350000     -72.96810000
C      -49.28390000     -33.77740000     -73.27160000
C      -50.10640000     -33.16950000     -72.36670000
H      -50.58950000     -32.92480000     -70.30870000
H      -47.19890000     -35.56120000     -71.32640000
H      -49.43760000     -33.44020000     -74.34540000
H      -50.95700000     -32.63440000     -72.73210000
C      -47.36490000     -35.23730000     -73.97430000
H      -47.95320000     -35.68330000     -74.84080000
H      -46.72740000     -36.02520000     -73.46320000
C      -48.85970000     -34.63480000     -69.13950000
H      -49.25220000     -33.79710000     -68.63090000
H      -49.47690000     -35.55090000     -68.77940000
S      -46.12820000     -34.16200000     -74.76160000
S      -47.22370000     -35.03570000     -68.59930000
C      -45.07480000     -33.31060000     -73.39290000
H      -45.00870000     -32.29500000     -73.72360000
H      -45.50450000     -33.27890000     -72.43260000
C      -46.11810000     -33.67010000     -68.94190000
H      -45.70590000     -33.14230000     -68.00300000
H      -46.73320000     -32.90790000     -69.47000000
C      -44.91690000     -34.08940000     -69.87230000
H      -44.61430000     -35.06520000     -69.51020000
H      -45.27590000     -34.26740000     -70.87750000
C      -43.65110000     -33.80130000     -73.31940000
H      -43.15910000     -33.73850000     -74.31710000
H      -43.77320000     -34.89530000     -73.01920000
C      -42.86430000     -32.87200000     -72.43880000
C      -41.79860000     -32.23630000     -72.97640000
C      -43.02640000     -32.59110000     -70.99650000
H      -41.53370000     -32.50800000     -74.00700000
C      -42.00750000     -31.76220000     -70.60320000
C      -43.80450000     -33.12850000     -69.85620000
C      -43.32970000     -32.55930000     -68.64940000
S      -40.76360000     -31.39740000     -71.82200000
S      -42.00550000     -31.43310000     -68.89610000
H      -43.91730000     -32.61400000     -67.68790000
