40
Properties=species:S:1:pos:R:3 #=T CELL(abcABC):=T 1.889726e+02=T 90.00000=T Traj:=T positionsangstrom=T Step:=T 0=T Bead:=T pbc="F F F"
C      -46.37690000     -33.57540000     -74.94880000
C      -47.33260000     -32.83610000     -74.23040000
C      -48.23380000     -33.37900000     -73.32580000
C      -48.10730000     -34.76940000     -73.05010000
C      -47.16610000     -35.53850000     -73.72830000
C      -46.30610000     -34.99800000     -74.68460000
H      -45.71950000     -33.06250000     -75.65440000
H      -48.83990000     -32.80400000     -72.65050000
H      -47.06660000     -36.58420000     -73.35520000
H      -45.62260000     -35.66650000     -75.16960000
C      -49.05530000     -35.49400000     -72.08060000
H      -49.25400000     -36.51850000     -72.43150000
H      -50.06240000     -35.02750000     -72.05980000
C      -47.23510000     -31.30990000     -74.37130000
H      -47.48280000     -31.01340000     -75.36730000
H      -47.89110000     -30.79910000     -73.63870000
S      -48.25260000     -35.61040000     -70.37730000
S      -45.43010000     -30.85710000     -74.18020000
C      -46.86000000     -34.35820000     -70.28440000
H      -47.09220000     -33.54760000     -71.00170000
H      -47.06170000     -33.87820000     -69.31740000
C      -45.06750000     -31.27030000     -72.37520000
H      -45.99400000     -31.76150000     -72.07200000
H      -44.80060000     -30.42440000     -71.87060000
C      -43.86570000     -32.34150000     -72.25740000
H      -44.30110000     -33.34570000     -72.62010000
H      -43.06980000     -32.12870000     -72.94050000
C      -45.44780000     -35.03080000     -70.54680000
H      -45.31110000     -34.97450000     -71.63840000
H      -45.56480000     -36.04750000     -70.16410000
C      -44.36260000     -34.43870000     -69.63950000
C      -44.22280000     -34.93150000     -68.35910000
C      -43.52160000     -33.24950000     -69.81730000
H      -44.79060000     -35.74900000     -67.99130000
C      -42.81880000     -32.98520000     -68.63640000
C      -43.22940000     -32.30760000     -70.86530000
C      -42.19150000     -31.43770000     -70.58490000
S      -43.16020000     -34.04170000     -67.29030000
S      -41.67680000     -31.65570000     -68.89210000
H      -41.81510000     -30.57040000     -71.21320000
