40
Properties=species:S:1:pos:R:3 #=T CELL(abcABC):=T 1.889726e+02=T 90.00000=T Traj:=T positionsangstrom=T Step:=T 0=T Bead:=T pbc="F F F"
C      -46.25080000     -34.18190000     -75.10580000
C      -46.86250000     -33.11470000     -74.29270000
C      -47.68630000     -33.53240000     -73.22050000
C      -47.95950000     -34.91480000     -73.02910000
C      -47.47170000     -35.92070000     -73.84660000
C      -46.57710000     -35.48540000     -74.86690000
H      -45.55950000     -33.94060000     -75.90140000
H      -48.04600000     -32.76080000     -72.56810000
H      -47.73920000     -36.91010000     -73.65600000
H      -46.05130000     -36.12110000     -75.66980000
C      -48.97290000     -35.19600000     -71.99020000
H      -49.65210000     -36.00980000     -72.32670000
H      -49.66350000     -34.35080000     -71.80590000
C      -46.77280000     -31.67390000     -74.74260000
H      -46.56840000     -31.75350000     -75.86170000
H      -47.76230000     -31.23950000     -74.56790000
S      -48.25990000     -35.83570000     -70.35710000
S      -45.48140000     -30.59430000     -74.05650000
C      -47.22540000     -34.49360000     -69.76290000
H      -47.85700000     -33.63870000     -69.58170000
H      -46.94630000     -34.70250000     -68.71760000
C      -45.11130000     -31.08680000     -72.30540000
H      -45.92490000     -31.63880000     -71.90890000
H      -44.98420000     -30.11830000     -71.82400000
C      -43.86060000     -31.92560000     -72.17040000
H      -44.09210000     -32.95610000     -72.51480000
H      -43.03920000     -31.47700000     -72.83710000
C      -45.93670000     -34.16080000     -70.53980000
H      -45.97630000     -33.21840000     -71.08820000
H      -45.69810000     -34.83570000     -71.40530000
C      -44.71810000     -33.99640000     -69.66570000
C      -44.50930000     -34.58360000     -68.44350000
C      -43.64940000     -33.03660000     -69.82590000
H      -45.15410000     -35.40140000     -68.10550000
C      -42.72100000     -33.04020000     -68.78960000
C      -43.26150000     -32.06450000     -70.81240000
C      -42.14600000     -31.31240000     -70.39170000
S      -43.15190000     -34.15150000     -67.50300000
S      -41.49690000     -31.85100000     -68.81110000
H      -41.66220000     -30.64550000     -71.02540000
