40
Properties=species:S:1:pos:R:3 #=T CELL(abcABC):=T 1.889726e+02=T 90.00000=T Traj:=T positionsangstrom=T Step:=T 0=T Bead:=T pbc="F F F"
C      -46.00400000     -34.11730000     -74.85590000
C      -46.88850000     -33.19680000     -74.51320000
C      -47.86870000     -33.43940000     -73.55350000
C      -47.86010000     -34.64680000     -72.82180000
C      -46.81280000     -35.50250000     -73.08300000
C      -45.87480000     -35.26960000     -74.08020000
H      -45.24680000     -33.76730000     -75.68480000
H      -48.68880000     -32.73460000     -73.37600000
H      -46.65730000     -36.43630000     -72.55480000
H      -45.22770000     -36.12040000     -74.22200000
C      -48.85260000     -34.91410000     -71.73670000
H      -49.59080000     -35.54370000     -72.20860000
H      -49.32420000     -34.00320000     -71.36500000
C      -46.78550000     -31.80710000     -75.12060000
H      -46.31480000     -31.77800000     -76.15910000
H      -47.73240000     -31.27460000     -75.11640000
S      -48.36390000     -35.94610000     -70.22430000
S      -45.53900000     -30.83790000     -74.24780000
C      -47.20210000     -34.99780000     -69.26350000
H      -47.74120000     -34.17200000     -68.77370000
H      -46.83680000     -35.70930000     -68.52880000
C      -45.28610000     -31.61140000     -72.49330000
H      -46.27090000     -31.90400000     -72.11820000
H      -45.05720000     -30.80730000     -71.83290000
C      -44.30610000     -32.81270000     -72.37660000
H      -44.88410000     -33.81010000     -72.48340000
H      -43.67580000     -32.76390000     -73.28810000
C      -45.96740000     -34.39790000     -70.05410000
H      -46.46940000     -33.59780000     -70.61500000
H      -45.51410000     -35.06250000     -70.74590000
C      -44.83280000     -33.80080000     -69.22620000
C      -44.69460000     -33.89830000     -67.86440000
C      -43.79830000     -32.97640000     -69.85800000
H      -45.35650000     -34.44040000     -67.17900000
C      -42.81020000     -32.70690000     -68.93430000
C      -43.38710000     -32.65450000     -71.18170000
C      -42.14020000     -32.06950000     -71.20690000
S      -43.18310000     -33.24930000     -67.28200000
S      -41.42830000     -31.86170000     -69.66060000
H      -41.66320000     -31.79080000     -72.05670000
