40
Properties=species:S:1:pos:R:3 #=T CELL(abcABC):=T 1.889726e+02=T 90.00000=T Traj:=T positionsangstrom=T Step:=T 0=T Bead:=T pbc="F F F"
C      -45.48600000     -33.31810000     -67.68490000
C      -46.25500000     -34.36930000     -68.13490000
C      -45.66960000     -35.48230000     -68.70890000
C      -44.27330000     -35.55310000     -68.87730000
C      -43.48280000     -34.38790000     -68.54560000
C      -44.13010000     -33.25560000     -67.95140000
H      -46.09040000     -32.45890000     -67.30210000
H      -46.15360000     -36.40450000     -69.21300000
H      -42.47280000     -34.30190000     -68.90240000
H      -43.51650000     -32.38060000     -67.86420000
C      -43.59540000     -36.75250000     -69.60000000
H      -43.67920000     -37.64250000     -68.93150000
H      -42.52060000     -36.51180000     -69.74210000
C      -47.73670000     -34.19370000     -68.10380000
H      -48.23100000     -35.14490000     -67.93080000
H      -47.97510000     -33.42800000     -67.30200000
S      -44.35630000     -37.12990000     -71.27210000
S      -48.47240000     -33.67830000     -69.72900000
C      -43.72720000     -35.67330000     -72.14830000
H      -42.86370000     -35.28520000     -71.54520000
H      -43.27020000     -36.07630000     -73.09750000
C      -47.38440000     -32.56910000     -70.73970000
H      -46.38480000     -32.85160000     -70.38490000
H      -47.69300000     -31.51110000     -70.55870000
C      -47.57600000     -32.75660000     -72.27090000
H      -47.26500000     -33.74190000     -72.47880000
H      -48.63370000     -32.59960000     -72.47140000
C      -44.78110000     -34.49190000     -72.21040000
H      -45.03070000     -34.25850000     -71.21540000
H      -45.65920000     -34.78230000     -72.83440000
C      -44.35500000     -33.23030000     -72.92800000
C      -43.04180000     -32.93180000     -73.13570000
C      -45.31730000     -32.20560000     -73.29380000
H      -42.20850000     -33.50290000     -72.81540000
C      -44.60990000     -31.06270000     -73.84960000
C      -46.67610000     -31.82490000     -73.07110000
C      -46.95570000     -30.51740000     -73.46580000
S      -42.86560000     -31.29870000     -73.84760000
S      -45.64920000     -29.65320000     -74.07910000
H      -47.89080000     -30.02900000     -73.27640000
