40
Properties=species:S:1:pos:R:3 #=T CELL(abcABC):=T 1.889726e+02=T 90.00000=T Traj:=T positionsangstrom=T Step:=T 0=T Bead:=T pbc="F F F"
C      -47.42330000     -29.49600000     -70.86610000
C      -47.52860000     -30.59940000     -71.68910000
C      -47.84940000     -31.86640000     -71.08010000
C      -48.00310000     -32.06240000     -69.70330000
C      -47.85690000     -30.89770000     -68.89670000
C      -47.71920000     -29.64870000     -69.49480000
H      -47.10290000     -28.58820000     -71.24910000
H      -48.00630000     -32.66690000     -71.74930000
H      -47.85080000     -30.97800000     -67.80370000
H      -47.67190000     -28.77390000     -68.80820000
C      -48.52440000     -33.33360000     -69.05730000
H      -49.62970000     -33.14790000     -68.77860000
H      -47.99070000     -33.45140000     -68.12140000
C      -47.32730000     -30.39790000     -73.23390000
H      -47.96680000     -30.96640000     -73.89770000
H      -47.53430000     -29.30920000     -73.40130000
S      -48.54310000     -34.81530000     -70.01240000
S      -45.64200000     -30.65470000     -73.87060000
C      -46.68270000     -35.42500000     -70.01610000
H      -46.21690000     -35.02210000     -69.14750000
H      -46.74090000     -36.46790000     -69.78160000
C      -44.88480000     -32.27010000     -73.33390000
H      -44.14480000     -32.35350000     -74.08870000
H      -45.61350000     -33.12260000     -73.44970000
C      -44.25110000     -32.26880000     -72.00930000
H      -43.77520000     -31.39590000     -71.65300000
H      -45.02280000     -32.47290000     -71.31650000
C      -46.04150000     -35.24600000     -71.32810000
H      -46.02920000     -34.26580000     -71.72670000
H      -46.63870000     -35.81590000     -72.04120000
C      -44.62730000     -35.64210000     -71.37610000
C      -44.22780000     -36.92260000     -71.11020000
C      -43.47510000     -34.72830000     -71.62120000
H      -44.98710000     -37.66990000     -70.77810000
C      -42.28980000     -35.41530000     -71.47440000
C      -43.23190000     -33.31820000     -71.86240000
C      -41.89950000     -33.07190000     -72.02290000
S      -42.48240000     -37.11740000     -71.02350000
S      -40.85560000     -34.42070000     -71.59760000
H      -41.41040000     -32.07090000     -72.16740000
