40
Properties=species:S:1:pos:R:3 #=T CELL(abcABC):=T 1.889726e+02=T 90.00000=T Traj:=T positionsangstrom=T Step:=T 0=T Bead:=T pbc="F F F"
C      -48.96280000     -35.19870000     -71.55900000
C      -48.23420000     -34.96950000     -70.38990000
C      -47.01010000     -35.62450000     -70.22830000
C      -46.46480000     -36.40460000     -71.25940000
C      -47.20220000     -36.59800000     -72.44610000
C      -48.47460000     -36.11980000     -72.54330000
H      -49.99440000     -34.79520000     -71.73580000
H      -46.46350000     -35.47260000     -69.24310000
H      -46.80420000     -37.33700000     -73.15220000
H      -49.08530000     -36.29030000     -73.44060000
C      -45.16110000     -37.08130000     -71.02670000
H      -45.29420000     -38.19970000     -70.94360000
H      -44.82640000     -36.78520000     -70.03810000
C      -48.80350000     -34.06670000     -69.25720000
H      -49.43970000     -33.28330000     -69.76080000
H      -49.51050000     -34.69310000     -68.65470000
S      -43.92790000     -36.91340000     -72.36800000
S      -47.57910000     -33.29670000     -68.09810000
C      -44.10710000     -35.02520000     -72.65700000
H      -43.69240000     -34.85250000     -73.63270000
H      -45.24940000     -34.83990000     -72.62620000
C      -46.65000000     -31.90040000     -68.85400000
H      -46.53290000     -31.11570000     -68.10230000
H      -47.28800000     -31.50290000     -69.56960000
C      -45.35600000     -32.26680000     -69.48130000
H      -44.54070000     -32.30460000     -68.67090000
H      -45.29520000     -33.25520000     -70.02220000
C      -43.32790000     -34.26560000     -71.58110000
H      -42.33780000     -34.79300000     -71.55040000
H      -43.76360000     -34.40190000     -70.63670000
C      -43.14620000     -32.85060000     -72.06610000
C      -42.34640000     -32.54340000     -73.11650000
C      -43.88940000     -31.66980000     -71.64120000
H      -41.83370000     -33.20700000     -73.72960000
C      -43.64830000     -30.55880000     -72.49430000
C      -44.76100000     -31.31290000     -70.52440000
C      -45.00980000     -29.94030000     -70.51460000
S      -42.48870000     -30.95180000     -73.77530000
S      -44.21790000     -29.04950000     -71.85900000
H      -45.76680000     -29.51880000     -69.84370000
