40
Properties=species:S:1:pos:R:3 #=T CELL(abcABC):=T 1.889726e+02=T 90.00000=T Traj:=T positionsangstrom=T Step:=T 0=T Bead:=T pbc="F F F"
C      -48.66610000     -35.63910000     -70.37110000
C      -47.83620000     -34.97250000     -69.45610000
C      -46.48490000     -35.46060000     -69.29390000
C      -45.94850000     -36.53110000     -70.07910000
C      -46.77130000     -37.03390000     -71.11320000
C      -48.14770000     -36.64870000     -71.18860000
H      -49.72010000     -35.38520000     -70.54260000
H      -46.11760000     -35.10920000     -68.29640000
H      -46.49660000     -37.92320000     -71.73290000
H      -48.82160000     -37.01700000     -71.97530000
C      -44.58780000     -37.11870000     -69.86370000
H      -44.68210000     -38.19780000     -69.87820000
H      -44.14140000     -36.82710000     -68.87840000
C      -48.38530000     -33.93000000     -68.56920000
H      -49.38880000     -33.62530000     -68.90460000
H      -48.59390000     -34.15480000     -67.51520000
S      -43.37680000     -36.62770000     -71.16930000
S      -47.24800000     -32.35430000     -68.44860000
C      -43.67270000     -34.94880000     -71.93690000
H      -43.15490000     -35.02020000     -72.87490000
H      -44.73010000     -34.86660000     -72.17930000
C      -47.10290000     -31.72660000     -70.08720000
H      -46.61140000     -30.79360000     -69.91580000
H      -48.12280000     -31.50850000     -70.51360000
C      -46.38830000     -32.68920000     -71.04930000
H      -45.56960000     -33.07820000     -70.48110000
H      -47.02620000     -33.43360000     -71.57830000
C      -43.16920000     -33.77800000     -71.07960000
H      -42.21130000     -33.96410000     -70.71740000
H      -43.78380000     -33.67340000     -70.23100000
C      -43.13800000     -32.46680000     -71.93300000
C      -41.91590000     -31.96230000     -72.43780000
C      -44.25370000     -31.77630000     -72.42990000
H      -40.90840000     -32.23180000     -72.27250000
C      -43.96500000     -30.74770000     -73.32700000
C      -45.68630000     -31.81970000     -72.12000000
C      -46.38760000     -30.90100000     -72.87570000
S      -42.26650000     -30.59080000     -73.56980000
S      -45.34630000     -29.95340000     -73.94870000
H      -47.43730000     -30.73640000     -72.85050000
