40
Properties=species:S:1:pos:R:3 #=T CELL(abcABC):=T 1.889726e+02=T 90.00000=T Traj:=T positionsangstrom=T Step:=T 0=T Bead:=T pbc="F F F"
C      -46.06660000     -32.83160000     -67.36410000
C      -46.54190000     -33.94740000     -68.03500000
C      -45.67170000     -34.99720000     -68.34610000
C      -44.30290000     -34.92150000     -68.21070000
C      -43.78150000     -33.65100000     -67.74360000
C      -44.67050000     -32.70580000     -67.24380000
H      -46.68600000     -32.10130000     -66.91130000
H      -46.21880000     -35.87690000     -68.77460000
H      -42.71060000     -33.45310000     -67.72670000
H      -44.28200000     -31.74190000     -66.93670000
C      -43.35090000     -36.08680000     -68.54430000
H      -43.75110000     -37.05170000     -68.19850000
H      -42.44300000     -36.07380000     -67.90480000
C      -47.99620000     -34.11310000     -68.29170000
H      -48.36570000     -34.93070000     -67.69530000
H      -48.49360000     -33.19130000     -68.04960000
S      -42.94200000     -36.31020000     -70.38210000
S      -48.33960000     -34.53720000     -70.08660000
C      -42.97690000     -34.60880000     -71.17510000
H      -42.69110000     -33.96090000     -70.38030000
H      -42.18810000     -34.58470000     -71.97720000
C      -47.52250000     -33.03340000     -70.91700000
H      -46.54790000     -32.83000000     -70.48270000
H      -48.03220000     -32.01570000     -70.81610000
C      -47.32260000     -33.46590000     -72.39130000
H      -46.58830000     -34.24390000     -72.36420000
H      -48.17100000     -33.94530000     -72.67880000
C      -44.31420000     -34.19100000     -71.84290000
H      -45.02410000     -33.83420000     -71.09220000
H      -44.73610000     -35.07820000     -72.27570000
C      -44.13600000     -33.09880000     -72.94270000
C      -42.98540000     -32.67530000     -73.51990000
C      -45.32200000     -32.35570000     -73.38930000
H      -42.00430000     -32.98010000     -73.42190000
C      -45.00280000     -31.38770000     -74.33220000
C      -46.72520000     -32.43860000     -73.27530000
C      -47.45600000     -31.67600000     -74.16830000
S      -43.28390000     -31.27130000     -74.63140000
S      -46.37230000     -30.64110000     -75.13080000
H      -48.49190000     -31.70110000     -74.31900000
