40
Properties=species:S:1:pos:R:3 #=T CELL(abcABC):=T 1.889726e+02=T 90.00000=T Traj:=T positionsangstrom=T Step:=T 0=T Bead:=T pbc="F F F"
C      -46.03860000     -32.61380000     -67.73550000
C      -46.52580000     -33.88620000     -68.18660000
C      -45.67910000     -34.92300000     -68.48620000
C      -44.25660000     -34.78410000     -68.26520000
C      -43.80380000     -33.49490000     -67.90050000
C      -44.67520000     -32.47070000     -67.56000000
H      -46.76530000     -31.90170000     -67.54520000
H      -46.01240000     -35.87090000     -68.86460000
H      -42.77280000     -33.26830000     -67.78570000
H      -44.34650000     -31.55180000     -67.06480000
C      -43.25100000     -35.96150000     -68.51260000
H      -43.56220000     -36.99480000     -68.26920000
H      -42.35410000     -35.62360000     -67.99210000
C      -47.97480000     -34.18900000     -68.23770000
H      -48.25340000     -35.08310000     -67.62640000
H      -48.56190000     -33.41070000     -67.70860000
S      -42.86500000     -36.18090000     -70.29980000
S      -48.50710000     -34.56180000     -69.93110000
C      -42.85770000     -34.51880000     -71.08750000
H      -43.01670000     -33.74340000     -70.27180000
H      -41.89660000     -34.32000000     -71.55980000
C      -47.72910000     -33.21670000     -70.88530000
H      -46.74670000     -33.07250000     -70.42570000
H      -48.27850000     -32.32910000     -70.83490000
C      -47.68780000     -33.50570000     -72.42520000
H      -47.37810000     -34.60880000     -72.67730000
H      -48.66360000     -33.26540000     -72.94020000
C      -44.06970000     -34.41850000     -72.04360000
H      -44.97290000     -34.55070000     -71.46610000
H      -44.03800000     -35.31930000     -72.71920000
C      -44.08010000     -33.17050000     -72.87190000
C      -42.94900000     -32.54630000     -73.27400000
C      -45.32960000     -32.54320000     -73.43760000
H      -41.93390000     -32.85940000     -73.24450000
C      -44.95240000     -31.54360000     -74.34880000
C      -46.82490000     -32.56110000     -73.27530000
C      -47.40710000     -31.56100000     -74.05150000
S      -43.25850000     -31.36490000     -74.53660000
S      -46.30740000     -30.76550000     -75.10810000
H      -48.50580000     -31.51640000     -74.16000000
