40
Properties=species:S:1:pos:R:3 #=T CELL(abcABC):=T 1.889726e+02=T 90.00000=T Traj:=T positionsangstrom=T Step:=T 0=T Bead:=T pbc="F F F"
C      -46.11670000     -32.59380000     -68.00810000
C      -46.45960000     -33.91750000     -68.28620000
C      -45.47100000     -34.96720000     -68.27250000
C      -44.12100000     -34.61870000     -68.21490000
C      -43.75790000     -33.27830000     -68.02750000
C      -44.73120000     -32.30700000     -67.96330000
H      -46.85610000     -31.75910000     -67.94700000
H      -45.80890000     -36.00860000     -68.36590000
H      -42.73980000     -32.97860000     -67.99350000
H      -44.30450000     -31.31990000     -67.84640000
C      -43.07790000     -35.68820000     -68.32960000
H      -43.42340000     -36.69990000     -67.96450000
H      -42.16920000     -35.29620000     -67.83230000
C      -47.94060000     -34.18920000     -68.28560000
H      -48.12740000     -35.13940000     -67.78570000
H      -48.50410000     -33.34760000     -67.87710000
S      -42.78650000     -36.15160000     -70.19100000
S      -48.69790000     -34.55630000     -69.98980000
C      -42.94580000     -34.54700000     -71.10750000
H      -42.84980000     -33.71200000     -70.45640000
H      -42.10780000     -34.52840000     -71.80000000
C      -47.74960000     -33.34040000     -71.03350000
H      -46.72730000     -33.31920000     -70.52530000
H      -48.16320000     -32.29320000     -70.90370000
C      -47.49040000     -33.80120000     -72.52610000
H      -47.03730000     -34.72130000     -72.51330000
H      -48.48980000     -33.97910000     -72.85460000
C      -44.25170000     -34.42110000     -71.94240000
H      -45.11010000     -34.28330000     -71.28720000
H      -44.56030000     -35.34280000     -72.46200000
C      -44.16490000     -33.29760000     -73.00580000
C      -42.99790000     -32.73640000     -73.37380000
C      -45.31420000     -32.55430000     -73.41960000
H      -41.90220000     -32.91300000     -73.19440000
C      -44.96330000     -31.45910000     -74.21630000
C      -46.73780000     -32.70800000     -73.28370000
C      -47.45230000     -31.83450000     -74.05880000
S      -43.23080000     -31.34850000     -74.42030000
S      -46.37230000     -30.68310000     -74.97660000
H      -48.57520000     -31.71280000     -73.84590000
