40
Properties=species:S:1:pos:R:3 #=T CELL(abcABC):=T 1.889726e+02=T 90.00000=T Traj:=T positionsangstrom=T Step:=T 0=T Bead:=T pbc="F F F"
C      -49.22110000     -31.98550000     -70.48010000
C      -48.47250000     -31.90460000     -71.68650000
C      -48.20910000     -33.06210000     -72.45860000
C      -48.56870000     -34.37000000     -72.03920000
C      -49.30530000     -34.39710000     -70.88100000
C      -49.64810000     -33.27490000     -70.11680000
H      -49.49050000     -31.11980000     -69.89370000
H      -47.61330000     -32.80670000     -73.37950000
H      -49.55810000     -35.44990000     -70.58380000
H      -50.29050000     -33.42110000     -69.21770000
C      -48.25240000     -35.63420000     -72.81740000
H      -47.82370000     -35.42010000     -73.80050000
H      -49.12410000     -36.25170000     -72.73680000
C      -48.13480000     -30.53970000     -72.11910000
H      -48.93740000     -30.07370000     -72.67540000
H      -48.07780000     -29.92060000     -71.24640000
S      -47.01710000     -36.68120000     -71.82170000
S      -46.50480000     -30.62230000     -72.98370000
C      -45.66520000     -35.64950000     -71.21300000
H      -46.08060000     -34.82680000     -70.63970000
H      -45.10100000     -36.33450000     -70.63230000
C      -45.44170000     -30.58610000     -71.36780000
H      -45.98150000     -29.85950000     -70.77610000
H      -44.44740000     -30.24890000     -71.63110000
C      -45.29030000     -31.90990000     -70.64810000
H      -45.77630000     -31.72680000     -69.66290000
H      -45.96130000     -32.69280000     -71.10460000
C      -44.69240000     -35.01060000     -72.32890000
H      -45.24220000     -34.25830000     -72.81380000
H      -44.49660000     -35.79880000     -73.02370000
C      -43.35370000     -34.61310000     -71.71230000
C      -42.27450000     -35.39160000     -71.98990000
C      -43.07030000     -33.48820000     -70.85620000
H      -42.25230000     -36.41460000     -72.32930000
C      -41.73650000     -33.48590000     -70.35450000
C      -43.80970000     -32.29940000     -70.43300000
C      -43.05530000     -31.52970000     -69.58280000
S      -40.86560000     -34.87000000     -71.04050000
S      -41.33730000     -32.11870000     -69.40410000
H      -43.35950000     -30.60320000     -69.04430000
