40
Properties=species:S:1:pos:R:3 #=T CELL(abcABC):=T 1.889726e+02=T 90.00000=T Traj:=T positionsangstrom=T Step:=T 0=T Bead:=T pbc="F F F"
C      -43.68750000     -35.18110000     -70.22680000
C      -45.06130000     -35.43690000     -70.19280000
C      -45.76880000     -35.52650000     -71.38040000
C      -45.09800000     -35.31150000     -72.58940000
C      -43.72780000     -34.97890000     -72.62960000
C      -42.98230000     -34.94640000     -71.43090000
H      -43.13370000     -35.33470000     -69.31250000
H      -46.77380000     -35.91530000     -71.41540000
H      -43.28790000     -34.71170000     -73.58720000
H      -41.84880000     -34.89920000     -71.38370000
C      -45.83690000     -35.53120000     -73.87460000
H      -46.45780000     -36.45790000     -73.76380000
H      -45.12770000     -35.72220000     -74.64240000
C      -45.62500000     -35.87690000     -68.87960000
H      -45.85440000     -36.98020000     -68.86610000
H      -44.91340000     -35.49050000     -68.14860000
S      -47.00490000     -34.21810000     -74.43820000
S      -47.20490000     -35.08740000     -68.49420000
C      -47.84760000     -33.41670000     -73.05610000
H      -48.91790000     -33.38060000     -73.23970000
H      -47.72190000     -34.10320000     -72.26050000
C      -46.86950000     -33.26770000     -68.16450000
H      -45.81050000     -33.20310000     -67.71330000
H      -47.60010000     -33.02330000     -67.38660000
C      -46.98810000     -32.30120000     -69.35630000
H      -47.51860000     -32.85320000     -70.12710000
H      -47.45570000     -31.34830000     -68.94200000
C      -47.22690000     -32.01350000     -72.83880000
H      -47.78400000     -31.61710000     -71.93220000
H      -47.53950000     -31.35560000     -73.56880000
C      -45.78250000     -31.92730000     -72.59950000
C      -44.78280000     -31.85480000     -73.58700000
C      -45.18280000     -31.73490000     -71.30420000
H      -44.98810000     -31.83880000     -74.63330000
C      -43.87320000     -31.49730000     -71.36110000
C      -45.57250000     -31.92330000     -69.90430000
C      -44.58170000     -31.47170000     -69.02770000
S      -43.17370000     -31.52690000     -72.94310000
S      -43.11200000     -31.16350000     -69.82750000
H      -44.60020000     -31.67790000     -67.97810000
