40
Properties=species:S:1:pos:R:3 #=T CELL(abcABC):=T 1.889726e+02=T 90.00000=T Traj:=T positionsangstrom=T Step:=T 0=T Bead:=T pbc="F F F"
C      -43.51240000     -32.03440000     -71.61440000
C      -43.86870000     -31.84950000     -72.95530000
C      -45.10010000     -31.23660000     -73.26710000
C      -45.87310000     -30.66820000     -72.31390000
C      -45.43510000     -30.73580000     -70.98310000
C      -44.27680000     -31.35660000     -70.65460000
H      -42.68660000     -32.69190000     -71.40210000
H      -45.44790000     -31.23840000     -74.26280000
H      -46.03370000     -30.27240000     -70.18930000
H      -44.13810000     -31.59880000     -69.65460000
C      -47.31770000     -30.30760000     -72.57240000
H      -47.44370000     -30.45160000     -73.66040000
H      -47.50420000     -29.26910000     -72.33240000
C      -43.21490000     -32.60780000     -74.10590000
H      -43.82570000     -32.64370000     -74.97520000
H      -42.28260000     -32.17460000     -74.43600000
S      -48.53480000     -31.34800000     -71.53160000
S      -42.55530000     -34.39770000     -73.91110000
C      -48.16050000     -33.00080000     -72.20950000
H      -48.82560000     -33.30860000     -72.99370000
H      -47.28320000     -32.86740000     -72.76770000
C      -44.01160000     -35.44380000     -73.82420000
H      -43.72570000     -36.45680000     -73.53830000
H      -44.47530000     -35.47450000     -74.81030000
C      -45.20720000     -35.09500000     -72.85140000
H      -45.45350000     -34.05070000     -73.09330000
H      -46.03830000     -35.74170000     -73.07840000
C      -48.02910000     -34.27830000     -71.29710000
H      -47.88980000     -35.16770000     -71.94710000
H      -49.00780000     -34.50240000     -70.80190000
C      -47.00080000     -34.25430000     -70.14670000
C      -47.30640000     -33.84520000     -68.89850000
C      -45.63420000     -34.75730000     -70.24890000
H      -48.26780000     -33.37270000     -68.70330000
C      -44.95330000     -34.72440000     -69.03690000
C      -44.77630000     -35.16460000     -71.37700000
C      -43.55320000     -35.42910000     -70.92680000
S      -45.94900000     -34.13740000     -67.69290000
S      -43.31470000     -35.29290000     -69.19450000
H      -42.74300000     -35.74170000     -71.57670000
