40
Properties=species:S:1:pos:R:3 #=T CELL(abcABC):=T 1.889726e+02=T 90.00000=T Traj:=T positionsangstrom=T Step:=T 0=T Bead:=T pbc="F F F"
C      -48.22400000     -36.08280000     -70.62790000
C      -47.90060000     -35.10820000     -69.65920000
C      -46.70130000     -35.15920000     -68.97910000
C      -45.74150000     -36.12490000     -69.42900000
C      -46.05380000     -37.06390000     -70.39200000
C      -47.35660000     -37.07800000     -70.96080000
H      -49.19500000     -36.05700000     -71.16120000
H      -46.44810000     -34.51070000     -68.16220000
H      -45.30790000     -37.81630000     -70.64120000
H      -47.50090000     -37.94540000     -71.61680000
C      -44.40280000     -36.07310000     -68.69570000
H      -44.11970000     -36.89070000     -68.08930000
H      -44.28660000     -35.21810000     -68.00330000
C      -48.87570000     -34.02370000     -69.23560000
H      -49.65610000     -33.79160000     -70.09010000
H      -49.57930000     -34.28000000     -68.51900000
S      -43.00390000     -36.10430000     -69.91680000
S      -48.08030000     -32.39760000     -68.75430000
C      -43.43870000     -35.01580000     -71.38880000
H      -42.92290000     -35.47390000     -72.18940000
H      -44.49770000     -35.07520000     -71.55410000
C      -47.53220000     -31.57190000     -70.34310000
H      -47.47900000     -30.53660000     -69.99510000
H      -48.25410000     -31.79410000     -71.16200000
C      -46.08870000     -32.06810000     -70.74800000
H      -45.34910000     -31.81640000     -69.96610000
H      -46.05770000     -33.18700000     -70.77610000
C      -42.99700000     -33.58670000     -71.16900000
H      -41.95230000     -33.62310000     -70.76340000
H      -43.59280000     -33.22010000     -70.36870000
C      -43.12930000     -32.77760000     -72.43530000
C      -42.21390000     -32.73840000     -73.48870000
C      -44.27150000     -31.83580000     -72.61250000
H      -41.29160000     -33.16760000     -73.56440000
C      -44.06220000     -31.09450000     -73.79640000
C      -45.52020000     -31.44350000     -71.98130000
C      -46.07570000     -30.31200000     -72.57850000
S      -42.57950000     -31.50330000     -74.64430000
S      -45.38770000     -29.99250000     -74.15540000
H      -47.04190000     -29.97630000     -72.30030000
