40
Properties=species:S:1:pos:R:3 #=T CELL(abcABC):=T 1.889726e+02=T 90.00000=T Traj:=T positionsangstrom=T Step:=T 0=T Bead:=T pbc="F F F"
C      -43.16860000     -32.04520000     -72.35180000
C      -44.06950000     -32.36060000     -73.41830000
C      -45.31140000     -31.73250000     -73.43150000
C      -45.68850000     -30.90930000     -72.35170000
C      -44.79360000     -30.67250000     -71.26380000
C      -43.49070000     -31.22150000     -71.31320000
H      -42.19670000     -32.48780000     -72.46420000
H      -46.01610000     -31.80890000     -74.27210000
H      -45.05560000     -29.90240000     -70.54560000
H      -42.66810000     -31.06320000     -70.58100000
C      -47.12160000     -30.39130000     -72.25310000
H      -47.62270000     -30.04340000     -73.16850000
H      -47.24170000     -29.60740000     -71.50580000
C      -43.45980000     -33.34050000     -74.49800000
H      -44.26330000     -33.51800000     -75.26730000
H      -42.65310000     -32.73980000     -74.92970000
S      -48.24350000     -31.67140000     -71.47670000
S      -42.55280000     -34.82700000     -73.78890000
C      -48.05710000     -33.25430000     -72.42540000
H      -48.89760000     -33.37370000     -73.11340000
H      -47.17800000     -33.30180000     -73.12380000
C      -43.82970000     -36.04910000     -73.33400000
H      -43.32050000     -36.81280000     -72.72930000
H      -44.23590000     -36.50580000     -74.21150000
C      -44.98440000     -35.40710000     -72.44630000
H      -45.38710000     -34.45490000     -72.91320000
H      -45.79960000     -36.08780000     -72.46220000
C      -48.08100000     -34.48310000     -71.43300000
H      -47.93140000     -35.32790000     -72.03280000
H      -49.08430000     -34.48910000     -71.02500000
C      -47.16540000     -34.39310000     -70.23520000
C      -47.76030000     -33.94050000     -69.05460000
C      -45.76510000     -34.73420000     -70.08160000
H      -48.74160000     -33.44890000     -69.00760000
C      -45.24140000     -34.08870000     -68.91030000
C      -44.71700000     -35.10140000     -71.01130000
C      -43.47830000     -34.91350000     -70.45410000
S      -46.51950000     -33.48080000     -67.88270000
S      -43.50160000     -34.25750000     -68.81160000
H      -42.51530000     -35.13530000     -70.92780000
