40
Properties=species:S:1:pos:R:3 #=T CELL(abcABC):=T 1.889726e+02=T 90.00000=T Traj:=T positionsangstrom=T Step:=T 0=T Bead:=T pbc="F F F"
C      -43.01190000     -31.89930000     -72.16410000
C      -43.82650000     -32.25080000     -73.28150000
C      -45.12190000     -31.77660000     -73.28980000
C      -45.70150000     -31.01190000     -72.25930000
C      -44.89430000     -30.68470000     -71.12620000
C      -43.54030000     -31.08490000     -71.11910000
H      -41.99460000     -32.29250000     -71.95060000
H      -45.84230000     -32.05450000     -74.14190000
H      -45.42260000     -30.27790000     -70.24790000
H      -42.83910000     -30.85040000     -70.24100000
C      -47.15830000     -30.69490000     -72.47700000
H      -47.42160000     -30.89640000     -73.50990000
H      -47.34510000     -29.60880000     -72.29790000
C      -43.39130000     -33.06010000     -74.41980000
H      -44.23720000     -33.21810000     -75.06590000
H      -42.68750000     -32.58200000     -75.08200000
S      -48.29190000     -31.69220000     -71.32650000
S      -42.60090000     -34.72050000     -74.09250000
C      -48.15000000     -33.20860000     -72.38050000
H      -49.08440000     -33.23010000     -72.95790000
H      -47.32490000     -33.04680000     -73.05670000
C      -43.95150000     -35.84030000     -73.50200000
H      -43.44620000     -36.68270000     -73.02430000
H      -44.39870000     -36.20940000     -74.43790000
C      -45.03130000     -35.34940000     -72.52770000
H      -45.67530000     -34.60690000     -72.95010000
H      -45.77290000     -36.20880000     -72.44910000
C      -47.99360000     -34.46980000     -71.57030000
H      -47.58810000     -35.25390000     -72.27100000
H      -48.98270000     -34.91740000     -71.25620000
C      -47.13570000     -34.25450000     -70.28860000
C      -47.68660000     -33.82970000     -69.08980000
C      -45.72540000     -34.48570000     -70.24050000
H      -48.74780000     -33.64740000     -68.87130000
C      -45.24410000     -34.13140000     -68.95420000
C      -44.71570000     -34.95020000     -71.07650000
C      -43.50740000     -35.10210000     -70.43960000
S      -46.47010000     -33.62580000     -67.85330000
S      -43.58410000     -34.53070000     -68.69490000
H      -42.59340000     -35.30510000     -70.96220000
