40
Properties=species:S:1:pos:R:3 #=T CELL(abcABC):=T 1.889726e+02=T 90.00000=T Traj:=T positionsangstrom=T Step:=T 0=T Bead:=T pbc="F F F"
C      -49.38070000     -31.96210000     -70.61180000
C      -48.63170000     -31.93410000     -71.78960000
C      -48.21780000     -33.18260000     -72.40800000
C      -48.66620000     -34.39760000     -71.91750000
C      -49.29770000     -34.37870000     -70.66580000
C      -49.68480000     -33.19880000     -69.99670000
H      -49.68810000     -31.00140000     -70.22630000
H      -47.73330000     -33.21430000     -73.36220000
H      -49.68850000     -35.30210000     -70.37860000
H      -50.23670000     -33.10780000     -69.05240000
C      -48.16030000     -35.58480000     -72.76080000
H      -47.75300000     -35.15010000     -73.66090000
H      -48.96430000     -36.27180000     -73.25710000
C      -48.17500000     -30.68020000     -72.46600000
H      -48.52580000     -30.58720000     -73.52310000
H      -48.45070000     -29.75900000     -71.87480000
S      -47.04980000     -36.69570000     -71.86030000
S      -46.31150000     -30.56140000     -72.85590000
C      -45.72730000     -35.56730000     -71.23740000
H      -46.21870000     -34.65780000     -70.74380000
H      -45.22980000     -36.04460000     -70.39620000
C      -45.34110000     -30.61060000     -71.34890000
H      -45.74570000     -29.89980000     -70.58490000
H      -44.36850000     -30.14130000     -71.60140000
C      -45.25850000     -32.00240000     -70.82060000
H      -45.92800000     -32.15580000     -69.97350000
H      -45.63610000     -32.75140000     -71.55600000
C      -44.70910000     -35.08940000     -72.26990000
H      -45.01590000     -34.28870000     -73.00860000
H      -44.47970000     -35.89170000     -73.02210000
C      -43.34990000     -34.72340000     -71.63780000
C      -42.23350000     -35.43130000     -71.82500000
C      -43.09580000     -33.52870000     -70.91800000
H      -42.16650000     -36.17400000     -72.57910000
C      -41.80210000     -33.46350000     -70.42780000
C      -43.85140000     -32.37990000     -70.34960000
C      -43.05850000     -31.54540000     -69.64250000
S      -40.80330000     -34.74670000     -71.04210000
S      -41.40300000     -32.09360000     -69.40230000
H      -43.54710000     -30.72120000     -69.13180000
