40
Properties=species:S:1:pos:R:3 #=T CELL(abcABC):=T 1.889726e+02=T 90.00000=T Traj:=T positionsangstrom=T Step:=T 0=T Bead:=T pbc="F F F"
C      -47.55720000     -33.69850000     -74.57080000
C      -47.96200000     -32.71010000     -73.72350000
C      -48.35350000     -33.04850000     -72.39790000
C      -48.46500000     -34.38580000     -71.99370000
C      -48.05840000     -35.34190000     -72.91110000
C      -47.61470000     -34.99750000     -74.16520000
H      -47.11050000     -33.39320000     -75.55570000
H      -48.64910000     -32.30830000     -71.74530000
H      -48.20230000     -36.32180000     -72.56640000
H      -47.26430000     -35.84790000     -74.75500000
C      -48.87630000     -34.78300000     -70.58620000
H      -49.85580000     -35.18850000     -70.55660000
H      -48.89250000     -33.96970000     -69.92990000
C      -47.84750000     -31.22870000     -74.02270000
H      -47.93940000     -31.00890000     -75.14040000
H      -48.54940000     -30.68340000     -73.40250000
S      -47.80970000     -36.17730000     -69.88480000
S      -46.12460000     -30.55570000     -73.71090000
C      -46.05050000     -35.47740000     -69.94670000
H      -45.50770000     -36.10510000     -69.18730000
H      -45.65940000     -35.86650000     -70.89340000
C      -45.35710000     -31.48820000     -72.35280000
H      -46.15360000     -31.90850000     -71.79910000
H      -44.85210000     -30.85540000     -71.70220000
C      -44.41360000     -32.60020000     -72.73580000
H      -44.84300000     -33.61450000     -72.73930000
H      -43.92750000     -32.60100000     -73.78130000
C      -45.83800000     -34.00430000     -69.74510000
H      -46.51850000     -33.57440000     -68.99370000
H      -46.05060000     -33.45990000     -70.61930000
C      -44.34060000     -33.83330000     -69.44890000
C      -43.83750000     -34.05190000     -68.17950000
C      -43.34090000     -33.21060000     -70.32110000
H      -44.11240000     -34.48810000     -67.20830000
C      -42.12510000     -33.12430000     -69.67130000
C      -43.27440000     -32.70960000     -71.69300000
C      -42.01160000     -32.21910000     -71.98790000
S      -42.06680000     -33.70490000     -68.03940000
S      -40.92350000     -32.26020000     -70.59480000
H      -41.64550000     -31.68700000     -72.89830000
