40
Properties=species:S:1:pos:R:3 #=T CELL(abcABC):=T 1.889726e+02=T 90.00000=T Traj:=T positionsangstrom=T Step:=T 0=T Bead:=T pbc="F F F"
C      -47.60040000     -33.67290000     -74.49860000
C      -48.05040000     -32.66570000     -73.63790000
C      -48.52260000     -33.04940000     -72.35060000
C      -48.49300000     -34.36490000     -71.85540000
C      -48.11760000     -35.29950000     -72.81570000
C      -47.66990000     -35.02540000     -74.11660000
H      -47.33570000     -33.48960000     -75.51150000
H      -48.80550000     -32.21150000     -71.59140000
H      -48.14250000     -36.38330000     -72.48670000
H      -47.50360000     -35.90890000     -74.75570000
C      -48.71230000     -34.75080000     -70.45200000
H      -49.65890000     -35.16240000     -70.27010000
H      -48.44920000     -33.91090000     -69.83560000
C      -47.86790000     -31.22170000     -73.95380000
H      -48.19030000     -30.94600000     -74.92920000
H      -48.51740000     -30.65660000     -73.22500000
S      -47.74210000     -36.22700000     -69.86520000
S      -46.13060000     -30.56940000     -73.88730000
C      -46.03910000     -35.79980000     -70.10000000
H      -45.69730000     -36.35720000     -69.30940000
H      -45.65360000     -36.16470000     -71.09090000
C      -45.40520000     -31.21500000     -72.32980000
H      -46.14940000     -31.46500000     -71.61730000
H      -44.78870000     -30.39950000     -71.93490000
C      -44.40860000     -32.34220000     -72.59180000
H      -44.86910000     -33.30650000     -72.54190000
H      -44.04940000     -32.15210000     -73.53470000
C      -45.71650000     -34.23200000     -69.82390000
H      -46.38630000     -33.88540000     -69.06220000
H      -46.01250000     -33.71710000     -70.77930000
C      -44.31890000     -33.91560000     -69.50920000
C      -43.76890000     -34.32330000     -68.30760000
C      -43.38660000     -33.11950000     -70.32290000
H      -44.30880000     -34.90370000     -67.60680000
C      -42.13720000     -32.98460000     -69.65550000
C      -43.32600000     -32.39180000     -71.63130000
C      -42.02560000     -32.11800000     -71.97510000
S      -42.11310000     -33.71170000     -68.04920000
S      -40.83170000     -32.35320000     -70.64030000
H      -41.72740000     -31.69100000     -72.90190000
