40
Properties=species:S:1:pos:R:3 #=T CELL(abcABC):=T 1.889726e+02=T 90.00000=T Traj:=T positionsangstrom=T Step:=T 0=T Bead:=T pbc="F F F"
C      -43.58210000     -35.57430000     -70.91840000
C      -44.89030000     -35.78700000     -70.41650000
C      -45.99990000     -35.55260000     -71.22050000
C      -45.93720000     -35.24640000     -72.59650000
C      -44.65380000     -34.88810000     -73.06340000
C      -43.48130000     -35.12360000     -72.27410000
H      -42.68280000     -35.80860000     -70.35160000
H      -46.98330000     -35.74190000     -70.81720000
H      -44.45930000     -34.59520000     -74.10910000
H      -42.47160000     -34.90520000     -72.69270000
C      -47.11860000     -35.36310000     -73.42700000
H      -47.68070000     -36.26060000     -73.09130000
H      -46.80320000     -35.53180000     -74.49220000
C      -45.07720000     -36.26910000     -68.96740000
H      -45.40190000     -37.31900000     -68.85160000
H      -44.09940000     -36.15540000     -68.41590000
S      -48.23300000     -33.89260000     -73.45710000
S      -46.42280000     -35.27820000     -68.10840000
C      -48.03920000     -33.02470000     -71.80870000
H      -49.01980000     -32.96150000     -71.36070000
H      -47.42620000     -33.76040000     -71.25790000
C      -45.64920000     -33.61130000     -67.87560000
H      -44.60500000     -33.68940000     -67.61110000
H      -46.19910000     -33.14310000     -66.98280000
C      -45.85730000     -32.74920000     -69.10090000
H      -46.68540000     -33.15010000     -69.68960000
H      -46.33160000     -31.79130000     -68.77540000
C      -47.45630000     -31.58430000     -71.78660000
H      -47.56470000     -31.27620000     -70.81840000
H      -48.06460000     -30.95610000     -72.30860000
C      -46.00820000     -31.35480000     -72.13800000
C      -45.59800000     -30.67200000     -73.25620000
C      -44.87480000     -31.84820000     -71.34580000
H      -46.16160000     -30.11090000     -74.02300000
C      -43.65800000     -31.60300000     -71.97750000
C      -44.70230000     -32.28050000     -69.98450000
C      -43.33520000     -32.34080000     -69.67410000
S      -43.82470000     -30.71660000     -73.46530000
S      -42.28570000     -31.85400000     -71.02590000
H      -42.95180000     -32.81500000     -68.81630000
