40
Properties=species:S:1:pos:R:3 #=T CELL(abcABC):=T 1.889726e+02=T 90.00000=T Traj:=T positionsangstrom=T Step:=T 0=T Bead:=T pbc="F F F"
C      -43.58710000     -35.72090000     -70.87700000
C      -44.86740000     -35.71170000     -70.29490000
C      -45.99390000     -35.59070000     -71.05030000
C      -45.89750000     -35.45070000     -72.47160000
C      -44.61480000     -35.25760000     -73.00360000
C      -43.46370000     -35.47860000     -72.24470000
H      -42.70540000     -35.84410000     -70.28270000
H      -46.96620000     -35.47860000     -70.52720000
H      -44.51100000     -35.08090000     -74.07630000
H      -42.54970000     -35.51630000     -72.77040000
C      -47.20080000     -35.38720000     -73.22000000
H      -48.00620000     -35.82160000     -72.69910000
H      -47.06960000     -35.85500000     -74.22960000
C      -45.15390000     -36.09890000     -68.80440000
H      -45.61810000     -37.10400000     -68.92710000
H      -44.23110000     -36.17170000     -68.19310000
S      -47.79280000     -33.68910000     -73.77990000
S      -46.24350000     -34.94400000     -67.80700000
C      -48.34780000     -32.82750000     -72.22840000
H      -49.33310000     -32.46480000     -72.58060000
H      -48.59660000     -33.58920000     -71.48220000
C      -45.18140000     -33.44890000     -67.61060000
H      -44.17020000     -33.58840000     -67.48380000
H      -45.47420000     -32.97910000     -66.61700000
C      -45.42560000     -32.34570000     -68.67400000
H      -46.49520000     -32.34550000     -68.95890000
H      -45.24830000     -31.34220000     -68.21890000
C      -47.59590000     -31.63120000     -71.61910000
H      -47.60240000     -31.80300000     -70.47240000
H      -48.22810000     -30.75370000     -71.90990000
C      -46.17260000     -31.45050000     -72.01810000
C      -45.93730000     -30.90640000     -73.26080000
C      -44.96450000     -31.83970000     -71.31300000
H      -46.73150000     -30.46250000     -73.85610000
C      -43.83890000     -31.60290000     -72.14150000
C      -44.60360000     -32.29460000     -69.94360000
C      -43.24910000     -32.39500000     -69.84210000
S      -44.24780000     -30.83850000     -73.64880000
S      -42.39470000     -32.08860000     -71.34520000
H      -42.73050000     -32.79140000     -68.96620000
