40
Properties=species:S:1:pos:R:3 #=T CELL(abcABC):=T 1.889726e+02=T 90.00000=T Traj:=T positionsangstrom=T Step:=T 0=T Bead:=T pbc="F F F"
C      -49.37870000     -34.82720000     -70.28560000
C      -48.84200000     -33.53800000     -70.41270000
C      -47.79660000     -33.18560000     -69.57180000
C      -47.23280000     -34.03630000     -68.60890000
C      -47.78740000     -35.33410000     -68.53460000
C      -48.86320000     -35.73440000     -69.34850000
H      -50.42640000     -34.94200000     -70.74180000
H      -47.46250000     -32.14150000     -69.67300000
H      -47.45780000     -36.05930000     -67.88170000
H      -49.38510000     -36.61860000     -69.17130000
C      -46.05080000     -33.67060000     -67.69160000
H      -46.40250000     -33.89410000     -66.72080000
H      -45.69530000     -32.59930000     -67.63260000
C      -49.34870000     -32.60590000     -71.48860000
H      -49.45270000     -33.20170000     -72.46190000
H      -50.22320000     -32.11990000     -71.19030000
S      -44.67520000     -34.99020000     -67.79730000
S      -48.26960000     -31.20290000     -71.92420000
C      -43.80060000     -34.44980000     -69.34350000
H      -43.18670000     -33.56370000     -69.04040000
H      -43.04280000     -35.22380000     -69.55090000
C      -46.68960000     -31.76250000     -72.70630000
H      -46.86990000     -31.69560000     -73.82120000
H      -46.69900000     -32.85490000     -72.63220000
C      -45.38740000     -30.97160000     -72.38900000
H      -45.40890000     -29.96200000     -72.79460000
H      -45.40720000     -31.01180000     -71.27220000
C      -44.59160000     -34.19260000     -70.63160000
H      -45.19720000     -33.32460000     -70.60850000
H      -45.30720000     -35.00580000     -70.76010000
C      -43.61760000     -34.09450000     -71.73370000
C      -42.75020000     -35.10160000     -71.95880000
C      -43.47670000     -32.99060000     -72.68650000
H      -42.61770000     -36.06540000     -71.38610000
C      -42.36060000     -33.19520000     -73.48050000
C      -44.17060000     -31.74440000     -72.92120000
C      -43.64200000     -31.14570000     -74.00600000
S      -41.68130000     -34.76040000     -73.27180000
S      -42.17120000     -31.94480000     -74.66040000
H      -44.02530000     -30.18990000     -74.36720000
