40
Properties=species:S:1:pos:R:3 #=T CELL(abcABC):=T 1.889726e+02=T 90.00000=T Traj:=T positionsangstrom=T Step:=T 0=T Bead:=T pbc="F F F"
C      -43.68800000     -35.61790000     -70.77410000
C      -44.93890000     -35.77680000     -70.22740000
C      -46.07900000     -35.75030000     -71.04940000
C      -45.98200000     -35.40040000     -72.40760000
C      -44.66510000     -35.17800000     -72.94670000
C      -43.54980000     -35.27340000     -72.14070000
H      -42.80900000     -35.71790000     -70.17940000
H      -47.08720000     -36.02990000     -70.52930000
H      -44.58500000     -34.88680000     -73.97950000
H      -42.56070000     -35.02970000     -72.54070000
C      -47.15790000     -35.26780000     -73.41320000
H      -48.02640000     -35.80430000     -72.99090000
H      -46.90980000     -35.76260000     -74.33850000
C      -45.02350000     -36.04830000     -68.75910000
H      -45.27650000     -37.05770000     -68.59730000
H      -44.05750000     -35.91730000     -68.24690000
S      -47.65820000     -33.44550000     -73.78680000
S      -46.21370000     -34.96410000     -67.97540000
C      -48.26390000     -33.02960000     -72.09940000
H      -49.30160000     -32.71620000     -72.19830000
H      -48.23610000     -33.95160000     -71.50420000
C      -45.26560000     -33.38590000     -67.71540000
H      -44.20770000     -33.61750000     -67.61040000
H      -45.72010000     -33.11220000     -66.72680000
C      -45.55240000     -32.34270000     -68.85710000
H      -46.54330000     -32.59770000     -69.31540000
H      -45.83190000     -31.42150000     -68.41680000
C      -47.61710000     -31.73810000     -71.54680000
H      -47.69070000     -31.77710000     -70.51470000
H      -48.26690000     -30.87940000     -71.73830000
C      -46.17410000     -31.52790000     -71.95270000
C      -45.91790000     -31.07460000     -73.24310000
C      -44.98880000     -31.88490000     -71.28160000
H      -46.64330000     -30.78140000     -73.95910000
C      -43.88510000     -31.66200000     -72.07000000
C      -44.57870000     -32.27850000     -69.94900000
C      -43.21370000     -32.37010000     -69.83230000
S      -44.25130000     -31.09000000     -73.61930000
S      -42.38360000     -31.96810000     -71.32720000
H      -42.67110000     -32.86080000     -68.99340000
