40
Properties=species:S:1:pos:R:3 #=T CELL(abcABC):=T 1.889726e+02=T 90.00000=T Traj:=T positionsangstrom=T Step:=T 0=T Bead:=T pbc="F F F"
C      -49.31920000     -34.55640000     -71.24310000
C      -48.73920000     -33.25870000     -71.05880000
C      -47.88010000     -33.04390000     -69.95820000
C      -47.71470000     -34.06350000     -69.02870000
C      -48.34730000     -35.31520000     -69.08800000
C      -49.06420000     -35.55530000     -70.28400000
H      -49.77210000     -34.69100000     -72.28570000
H      -47.43090000     -32.03060000     -69.82210000
H      -48.33630000     -36.07650000     -68.27650000
H      -49.48020000     -36.49910000     -70.62210000
C      -46.85310000     -33.82430000     -67.76740000
H      -47.39200000     -34.18240000     -66.88580000
H      -46.80150000     -32.76960000     -67.59460000
C      -49.20020000     -32.07580000     -71.82990000
H      -49.59580000     -32.40610000     -72.73020000
H      -50.07520000     -31.60280000     -71.31810000
S      -45.18080000     -34.50010000     -67.68950000
S      -47.90840000     -30.76280000     -72.11790000
C      -44.47430000     -33.74280000     -69.20850000
H      -44.96710000     -32.76350000     -69.35640000
H      -43.41110000     -33.58360000     -68.92820000
C      -46.53990000     -31.76010000     -72.83330000
H      -46.50670000     -31.55240000     -73.92400000
H      -46.79250000     -32.87650000     -72.76910000
C      -45.22960000     -31.57660000     -72.07260000
H      -45.13830000     -30.45080000     -71.89100000
H      -45.35230000     -32.08440000     -71.12190000
C      -44.62770000     -34.63640000     -70.44060000
H      -45.67570000     -34.42610000     -70.81260000
H      -44.64930000     -35.67060000     -70.18300000
C      -43.51880000     -34.48040000     -71.49260000
C      -42.55900000     -35.47100000     -71.65230000
C      -43.34870000     -33.33730000     -72.40180000
H      -42.48040000     -36.33440000     -70.98800000
C      -42.16270000     -33.45210000     -73.08080000
C      -44.02130000     -32.10940000     -72.75340000
C      -43.38740000     -31.43590000     -73.76070000
S      -41.37330000     -35.08230000     -72.86200000
S      -41.78680000     -32.13710000     -74.11540000
H      -43.53660000     -30.43120000     -74.15850000
