40
Properties=species:S:1:pos:R:3 #=T CELL(abcABC):=T 1.889726e+02=T 90.00000=T Traj:=T positionsangstrom=T Step:=T 0=T Bead:=T pbc="F F F"
C      -43.68210000     -31.86420000     -70.20280000
C      -44.16630000     -31.15670000     -71.34640000
C      -45.50380000     -30.75430000     -71.31990000
C      -46.31130000     -31.12650000     -70.24500000
C      -45.89360000     -31.90800000     -69.19040000
C      -44.54020000     -32.30590000     -69.18470000
H      -42.62860000     -32.09550000     -70.08510000
H      -45.95490000     -30.20710000     -72.12800000
H      -46.62860000     -32.10820000     -68.39630000
H      -44.15810000     -32.81050000     -68.27780000
C      -47.78500000     -30.78390000     -70.31980000
H      -47.93530000     -29.82850000     -70.82320000
H      -48.23950000     -30.72310000     -69.37360000
C      -43.23200000     -30.83440000     -72.52750000
H      -43.67700000     -30.28670000     -73.26710000
H      -42.52820000     -30.23350000     -72.10000000
S      -48.87600000     -32.08770000     -71.11090000
S      -42.27550000     -32.32550000     -73.24190000
C      -47.98430000     -32.64460000     -72.61660000
H      -48.59810000     -32.40090000     -73.53910000
H      -47.03580000     -32.04600000     -72.72990000
C      -43.36280000     -33.20940000     -74.39290000
H      -42.80300000     -33.91100000     -75.00950000
H      -43.82910000     -32.50260000     -75.13140000
C      -44.56730000     -33.88910000     -73.75560000
H      -45.32940000     -33.16910000     -73.49080000
H      -45.15830000     -34.51080000     -74.49450000
C      -47.63200000     -34.19750000     -72.52290000
H      -47.10020000     -34.35250000     -73.39350000
H      -48.47750000     -34.87970000     -72.39120000
C      -46.84610000     -34.68660000     -71.34300000
C      -47.40900000     -35.05050000     -70.10510000
C      -45.42400000     -35.00450000     -71.48160000
H      -48.46080000     -34.91680000     -69.82490000
C      -44.97610000     -35.63300000     -70.31600000
C      -44.35090000     -34.68970000     -72.52920000
C      -43.13460000     -35.24820000     -72.12910000
S      -46.19730000     -35.74830000     -69.06190000
S      -43.24010000     -36.03700000     -70.54980000
H      -42.17530000     -34.98650000     -72.51390000
