40
Properties=species:S:1:pos:R:3 #=T CELL(abcABC):=T 1.889726e+02=T 90.00000=T Traj:=T positionsangstrom=T Step:=T 0=T Bead:=T pbc="F F F"
C      -43.70030000     -32.00290000     -70.17080000
C      -44.03660000     -31.22340000     -71.26010000
C      -45.36060000     -30.83530000     -71.39310000
C      -46.28490000     -31.19680000     -70.35980000
C      -45.91100000     -31.90900000     -69.21220000
C      -44.59700000     -32.36710000     -69.14080000
H      -42.69090000     -32.33310000     -70.08410000
H      -45.75150000     -30.16330000     -72.18300000
H      -46.69050000     -32.21420000     -68.54790000
H      -44.16720000     -32.99350000     -68.37190000
C      -47.73630000     -30.79060000     -70.46980000
H      -47.80640000     -30.11550000     -71.39080000
H      -48.10660000     -30.21440000     -69.60130000
C      -43.07520000     -30.70680000     -72.29240000
H      -43.70370000     -30.15500000     -73.14020000
H      -42.13450000     -30.14940000     -71.82450000
S      -48.86530000     -32.25290000     -70.85570000
S      -42.26420000     -32.13360000     -73.17200000
C      -48.13180000     -32.69610000     -72.47490000
H      -48.79690000     -32.36770000     -73.24520000
H      -47.24200000     -32.12080000     -72.59800000
C      -43.52280000     -32.93290000     -74.35590000
H      -42.90410000     -33.53380000     -75.00700000
H      -43.98180000     -32.07530000     -74.91960000
C      -44.58900000     -33.83070000     -73.66630000
H      -45.38800000     -33.14390000     -73.35020000
H      -45.04720000     -34.42930000     -74.46430000
C      -47.76270000     -34.18460000     -72.53610000
H      -47.27510000     -34.43160000     -73.51790000
H      -48.74500000     -34.68270000     -72.55490000
C      -46.80540000     -34.59330000     -71.45880000
C      -47.36050000     -34.98370000     -70.27270000
C      -45.37760000     -34.84310000     -71.54340000
H      -48.36860000     -34.87880000     -69.93320000
C      -44.98200000     -35.51940000     -70.40680000
C      -44.29400000     -34.67050000     -72.49150000
C      -43.13270000     -35.33350000     -72.16000000
S      -46.20470000     -35.81330000     -69.23230000
S      -43.30000000     -36.15850000     -70.64050000
H      -42.15500000     -35.26270000     -72.63990000
