40
Properties=species:S:1:pos:R:3 #=T CELL(abcABC):=T 1.889726e+02=T 90.00000=T Traj:=T positionsangstrom=T Step:=T 0=T Bead:=T pbc="F F F"
C      -43.50730000     -32.08960000     -70.74060000
C      -44.03900000     -31.38930000     -71.80230000
C      -45.33880000     -30.91090000     -71.67560000
C      -46.15710000     -31.18490000     -70.60420000
C      -45.61220000     -31.89960000     -69.55110000
C      -44.33530000     -32.35950000     -69.58800000
H      -42.55600000     -32.59610000     -70.89960000
H      -45.87280000     -30.36350000     -72.48350000
H      -46.15450000     -32.02240000     -68.60320000
H      -43.89000000     -32.95840000     -68.79680000
C      -47.54930000     -30.68920000     -70.48440000
H      -47.76700000     -29.80880000     -71.13120000
H      -47.87460000     -30.55000000     -69.43340000
C      -43.23360000     -31.20610000     -73.09360000
H      -44.09790000     -30.94300000     -73.77440000
H      -42.45440000     -30.40800000     -72.86350000
S      -48.75720000     -32.14140000     -71.01100000
S      -42.18320000     -32.60290000     -73.56310000
C      -48.10280000     -32.72380000     -72.62630000
H      -48.91970000     -32.54820000     -73.31450000
H      -47.32250000     -32.22380000     -73.02560000
C      -43.36010000     -33.70390000     -74.38110000
H      -42.79980000     -34.54020000     -74.79580000
H      -43.70640000     -33.11110000     -75.23470000
C      -44.59910000     -34.08150000     -73.50840000
H      -45.14730000     -33.12240000     -73.46970000
H      -45.23390000     -34.79310000     -74.07120000
C      -47.82720000     -34.21780000     -72.56500000
H      -47.18000000     -34.51160000     -73.41870000
H      -48.76240000     -34.82300000     -72.71250000
C      -46.97210000     -34.63450000     -71.24160000
C      -47.57770000     -34.97470000     -70.05940000
C      -45.54960000     -34.85220000     -71.23420000
H      -48.65630000     -35.01010000     -69.87440000
C      -45.11600000     -35.35790000     -70.03120000
C      -44.42090000     -34.57820000     -72.13780000
C      -43.20780000     -35.01590000     -71.62010000
S      -46.40090000     -35.44760000     -68.85980000
S      -43.36140000     -35.57540000     -69.90600000
H      -42.22120000     -34.84010000     -72.05860000
