40
Properties=species:S:1:pos:R:3 #=T CELL(abcABC):=T 1.889726e+02=T 90.00000=T Traj:=T positionsangstrom=T Step:=T 0=T Bead:=T pbc="F F F"
C      -49.04290000     -32.06150000     -70.83110000
C      -48.62860000     -32.06810000     -72.17280000
C      -48.35830000     -33.27350000     -72.76970000
C      -48.47940000     -34.48260000     -72.02290000
C      -48.90430000     -34.46470000     -70.72350000
C      -49.21240000     -33.21050000     -70.09470000
H      -49.26270000     -31.08420000     -70.38240000
H      -47.84570000     -33.20590000     -73.79430000
H      -48.75550000     -35.33030000     -70.03140000
H      -49.43370000     -33.22470000     -68.97910000
C      -47.88880000     -35.70600000     -72.74740000
H      -47.15210000     -35.38770000     -73.44330000
H      -48.67880000     -36.34460000     -73.28520000
C      -48.14710000     -30.73120000     -72.87840000
H      -48.38550000     -30.95950000     -73.90200000
H      -48.66110000     -29.75140000     -72.63300000
S      -46.97810000     -36.88030000     -71.70790000
S      -46.42110000     -30.33680000     -72.83970000
C      -45.70720000     -35.74560000     -70.99580000
H      -46.14360000     -34.79040000     -70.56880000
H      -45.21340000     -36.37290000     -70.26210000
C      -45.92450000     -30.61900000     -71.04350000
H      -46.78330000     -30.33500000     -70.51330000
H      -45.13630000     -29.88420000     -70.81790000
C      -45.47690000     -32.08560000     -70.73880000
H      -46.16580000     -32.51540000     -69.95360000
H      -45.74270000     -32.66870000     -71.65320000
C      -44.63990000     -35.31730000     -72.10260000
H      -45.18070000     -34.56350000     -72.68680000
H      -44.30770000     -36.12070000     -72.76260000
C      -43.44710000     -34.76790000     -71.52790000
C      -42.23910000     -35.44870000     -71.62710000
C      -43.19940000     -33.45150000     -70.81230000
H      -42.02710000     -36.32470000     -72.18390000
C      -41.84180000     -33.36070000     -70.41640000
C      -43.93430000     -32.23820000     -70.44460000
C      -43.21300000     -31.30120000     -69.76390000
S      -40.81580000     -34.65610000     -70.91300000
S      -41.52090000     -31.90400000     -69.49590000
H      -43.39060000     -30.42770000     -69.19390000
