40
Properties=species:S:1:pos:R:3 #=T CELL(abcABC):=T 1.889726e+02=T 90.00000=T Traj:=T positionsangstrom=T Step:=T 0=T Bead:=T pbc="F F F"
C      -47.58540000     -33.38060000     -75.29530000
C      -47.16470000     -32.50600000     -74.23370000
C      -47.70130000     -32.83990000     -72.90190000
C      -48.68670000     -33.84040000     -72.78660000
C      -49.22720000     -34.49070000     -73.87020000
C      -48.58430000     -34.31730000     -75.11290000
H      -47.36130000     -33.05050000     -76.30620000
H      -47.51700000     -32.24410000     -72.06100000
H      -49.83330000     -35.40400000     -73.76920000
H      -48.83190000     -35.06820000     -75.91820000
C      -49.21890000     -34.20780000     -71.46420000
H      -50.25470000     -34.54820000     -71.58490000
H      -49.30050000     -33.32050000     -70.76270000
C      -46.15480000     -31.47490000     -74.57730000
H      -46.18530000     -31.07820000     -75.57300000
H      -46.21370000     -30.59740000     -73.79250000
S      -48.29540000     -35.55730000     -70.45620000
S      -44.35310000     -31.94070000     -74.43150000
C      -46.48100000     -35.01950000     -70.70560000
H      -45.89820000     -35.82430000     -70.24110000
H      -46.23190000     -34.90200000     -71.72770000
C      -44.21790000     -32.17190000     -72.62690000
H      -45.23890000     -32.17260000     -72.22860000
H      -43.59330000     -31.41300000     -72.28390000
C      -43.48060000     -33.52320000     -72.35810000
H      -44.17370000     -34.34560000     -72.60220000
H      -42.59080000     -33.58620000     -73.06310000
C      -46.16600000     -33.63320000     -69.91000000
H      -47.01530000     -33.45440000     -69.31860000
H      -46.25260000     -32.83330000     -70.65710000
C      -44.91880000     -33.47500000     -69.06230000
C      -44.98590000     -33.30660000     -67.71480000
C      -43.56520000     -33.27950000     -69.66150000
H      -45.86600000     -33.34490000     -67.14970000
C      -42.61020000     -33.00790000     -68.65650000
C      -42.91610000     -33.47070000     -70.91040000
C      -41.54610000     -33.20520000     -70.87690000
S      -43.42830000     -33.06030000     -67.01030000
S      -40.96650000     -32.88570000     -69.25070000
H      -40.94500000     -32.96930000     -71.75440000
