40
Properties=species:S:1:pos:R:3 #=T CELL(abcABC):=T 1.889726e+02=T 90.00000=T Traj:=T positionsangstrom=T Step:=T 0=T Bead:=T pbc="F F F"
C      -43.11720000     -34.97790000     -71.67730000
C      -44.20580000     -35.25580000     -70.84110000
C      -45.47700000     -35.37590000     -71.39640000
C      -45.72340000     -35.13780000     -72.80770000
C      -44.61350000     -34.85710000     -73.63940000
C      -43.31820000     -34.73820000     -73.05010000
H      -42.16790000     -34.81260000     -71.28740000
H      -46.26010000     -35.73600000     -70.76180000
H      -44.73790000     -34.84110000     -74.73780000
H      -42.36640000     -34.52290000     -73.60200000
C      -47.15610000     -35.36780000     -73.30800000
H      -47.71580000     -36.18940000     -72.83130000
H      -47.13610000     -35.68130000     -74.41870000
C      -44.05760000     -35.50650000     -69.36000000
H      -43.72020000     -36.59580000     -69.15540000
H      -43.34390000     -34.72650000     -68.99720000
S      -48.26790000     -33.87680000     -73.37450000
S      -45.62790000     -35.45560000     -68.29920000
C      -48.41300000     -33.30040000     -71.58570000
H      -49.40440000     -33.55660000     -71.15980000
H      -47.76840000     -34.02050000     -70.97170000
C      -45.56160000     -33.66150000     -67.57670000
H      -44.58350000     -33.63890000     -67.03220000
H      -46.37960000     -33.65840000     -66.80200000
C      -45.82410000     -32.50170000     -68.53900000
H      -46.86750000     -32.64570000     -68.78420000
H      -45.83440000     -31.59430000     -67.96790000
C      -47.94020000     -31.86750000     -71.47590000
H      -48.15730000     -31.41360000     -70.52280000
H      -48.42260000     -31.19990000     -72.16000000
C      -46.44400000     -31.69030000     -71.77770000
C      -46.16100000     -31.22200000     -73.04980000
C      -45.23170000     -31.93370000     -70.95710000
H      -46.92720000     -30.76970000     -73.76480000
C      -44.09460000     -31.61780000     -71.78620000
C      -44.81580000     -32.30130000     -69.60760000
C      -43.45770000     -32.37290000     -69.48730000
S      -44.47170000     -31.01870000     -73.34830000
S      -42.53990000     -31.88720000     -71.03080000
H      -42.95480000     -32.69370000     -68.54330000
