40
Properties=species:S:1:pos:R:3 #=T CELL(abcABC):=T 1.889726e+02=T 90.00000=T Traj:=T positionsangstrom=T Step:=T 0=T Bead:=T pbc="F F F"
C      -43.31290000     -34.74650000     -71.46420000
C      -44.37660000     -35.31140000     -70.71290000
C      -45.58320000     -35.57540000     -71.39810000
C      -45.75640000     -35.21940000     -72.69400000
C      -44.74660000     -34.59480000     -73.43710000
C      -43.53270000     -34.36620000     -72.81620000
H      -42.39630000     -34.43490000     -70.92470000
H      -46.40280000     -36.13260000     -70.99450000
H      -44.83650000     -34.43720000     -74.45910000
H      -42.65100000     -33.96460000     -73.30650000
C      -47.13520000     -35.54270000     -73.42300000
H      -47.62280000     -36.45800000     -73.00390000
H      -47.02130000     -35.75970000     -74.47170000
C      -44.08300000     -35.75740000     -69.30960000
H      -44.02040000     -36.86790000     -69.35120000
H      -43.20010000     -35.27920000     -68.79090000
S      -48.20080000     -34.03450000     -73.49480000
S      -45.58130000     -35.52240000     -68.20120000
C      -48.24250000     -33.59270000     -71.74870000
H      -49.29160000     -33.88340000     -71.38880000
H      -47.65450000     -34.40610000     -71.24110000
C      -45.37860000     -33.75950000     -67.71550000
H      -44.28990000     -33.53200000     -67.63420000
H      -45.84000000     -33.66480000     -66.74200000
C      -45.84290000     -32.69510000     -68.69040000
H      -46.83450000     -32.92860000     -69.19330000
H      -46.14740000     -31.77530000     -68.25850000
C      -47.81530000     -32.09130000     -71.42850000
H      -47.92490000     -31.81300000     -70.33880000
H      -48.68940000     -31.52240000     -71.83970000
C      -46.38540000     -31.76940000     -71.87180000
C      -46.19550000     -31.41110000     -73.18560000
C      -45.17660000     -31.77590000     -71.05110000
H      -46.89980000     -31.13070000     -73.92690000
C      -44.07200000     -31.45030000     -71.81920000
C      -44.82080000     -32.22210000     -69.73670000
C      -43.48130000     -32.07180000     -69.51320000
S      -44.42020000     -31.13880000     -73.43980000
S      -42.58580000     -31.38430000     -70.85410000
H      -42.95160000     -32.16670000     -68.52830000
