40
Properties=species:S:1:pos:R:3 #=T CELL(abcABC):=T 1.889726e+02=T 90.00000=T Traj:=T positionsangstrom=T Step:=T 0=T Bead:=T pbc="F F F"
C      -46.22640000     -34.07600000     -68.67840000
C      -47.19300000     -34.84750000     -69.40780000
C      -48.06640000     -34.14590000     -70.23480000
C      -48.18780000     -32.72990000     -70.26030000
C      -47.27390000     -32.04180000     -69.46540000
C      -46.30570000     -32.65590000     -68.71960000
H      -45.53920000     -34.55130000     -67.94310000
H      -48.74090000     -34.68760000     -70.88380000
H      -47.37240000     -30.96160000     -69.42840000
H      -45.59010000     -32.09620000     -68.17450000
C      -49.14540000     -32.06000000     -71.17070000
H      -49.25910000     -31.03330000     -70.82020000
H      -50.13480000     -32.56990000     -71.14950000
C      -47.36540000     -36.35570000     -69.46110000
H      -47.40200000     -36.72250000     -68.40840000
H      -48.37980000     -36.58640000     -69.95780000
S      -48.66430000     -32.10940000     -72.97280000
S      -46.06430000     -37.34270000     -70.47940000
C      -46.95650000     -31.46550000     -72.98020000
H      -46.87890000     -30.53890000     -73.56700000
H      -46.78310000     -31.12190000     -71.93680000
C      -44.61930000     -36.29970000     -70.79630000
H      -43.91630000     -36.97940000     -71.25780000
H      -44.09970000     -36.16650000     -69.85430000
C      -44.74830000     -35.06190000     -71.67140000
H      -44.79310000     -35.24800000     -72.81700000
H      -45.81190000     -34.69170000     -71.56040000
C      -45.88560000     -32.51150000     -73.24610000
H      -45.82240000     -32.77710000     -74.27640000
H      -46.15480000     -33.43530000     -72.73840000
C      -44.45790000     -32.07480000     -72.89920000
C      -43.91940000     -30.83710000     -73.27520000
C      -43.49040000     -32.88590000     -72.17580000
H      -44.27960000     -30.15210000     -73.98030000
C      -42.30950000     -32.25340000     -71.93580000
C      -43.56820000     -34.17310000     -71.44260000
C      -42.41510000     -34.40880000     -70.78200000
S      -42.27100000     -30.71710000     -72.75330000
S      -41.19930000     -33.20140000     -70.91850000
H      -42.24640000     -35.34540000     -70.23130000
