40
Properties=species:S:1:pos:R:3 #=T CELL(abcABC):=T 1.889726e+02=T 90.00000=T Traj:=T positionsangstrom=T Step:=T 0=T Bead:=T pbc="F F F"
C      -43.74050000     -32.00210000     -70.16720000
C      -44.04210000     -31.18830000     -71.26450000
C      -45.33430000     -30.74490000     -71.33790000
C      -46.26180000     -31.08380000     -70.35740000
C      -45.94240000     -31.86660000     -69.20880000
C      -44.63050000     -32.29790000     -69.16480000
H      -42.75530000     -32.42140000     -70.12450000
H      -45.55380000     -30.14880000     -72.21810000
H      -46.64940000     -32.05770000     -68.45110000
H      -44.27970000     -32.97470000     -68.40530000
C      -47.72500000     -30.76730000     -70.44990000
H      -47.96850000     -30.02120000     -71.14420000
H      -48.09530000     -30.46780000     -69.44880000
C      -43.05570000     -30.76930000     -72.32930000
H      -43.56150000     -30.15710000     -73.03080000
H      -42.31540000     -30.14500000     -71.94010000
S      -48.84360000     -32.24390000     -70.78890000
S      -42.10750000     -32.10790000     -73.11290000
C      -48.19240000     -32.74570000     -72.42170000
H      -48.96760000     -32.56900000     -73.22660000
H      -47.28220000     -32.05480000     -72.54300000
C      -43.44190000     -32.90470000     -74.19910000
H      -42.91860000     -33.66320000     -74.78250000
H      -43.69000000     -32.16250000     -74.96290000
C      -44.72310000     -33.46250000     -73.54330000
H      -45.28840000     -32.69200000     -72.95880000
H      -45.39530000     -33.88260000     -74.29200000
C      -47.87390000     -34.24750000     -72.54540000
H      -47.23870000     -34.43270000     -73.47010000
H      -48.67780000     -34.87730000     -72.80060000
C      -47.01470000     -34.82170000     -71.40350000
C      -47.36060000     -35.39500000     -70.25070000
C      -45.55430000     -35.03870000     -71.61900000
H      -48.31910000     -35.33030000     -69.83500000
C      -44.99960000     -35.75420000     -70.55650000
C      -44.49430000     -34.56780000     -72.51950000
C      -43.24420000     -34.98080000     -72.21370000
S      -46.01260000     -36.02230000     -69.26910000
S      -43.29570000     -35.98550000     -70.79920000
H      -42.35110000     -34.94070000     -72.88050000
