40
Properties=species:S:1:pos:R:3 #=T CELL(abcABC):=T 1.889726e+02=T 90.00000=T Traj:=T positionsangstrom=T Step:=T 0=T Bead:=T pbc="F F F"
C      -48.46230000     -33.55610000     -68.86270000
C      -48.57560000     -34.38790000     -69.93760000
C      -48.68080000     -33.84890000     -71.20980000
C      -48.72520000     -32.42760000     -71.41000000
C      -48.72260000     -31.58500000     -70.29250000
C      -48.55950000     -32.18410000     -69.04000000
H      -48.30750000     -34.02960000     -67.91770000
H      -48.77340000     -34.47450000     -72.15250000
H      -48.83210000     -30.51440000     -70.47700000
H      -48.45270000     -31.51780000     -68.11510000
C      -48.69860000     -31.89140000     -72.82740000
H      -48.75270000     -30.80310000     -72.69680000
H      -49.54580000     -32.25230000     -73.35300000
C      -48.34800000     -35.90640000     -69.72210000
H      -47.95030000     -36.13440000     -68.76550000
H      -49.22240000     -36.56310000     -69.96870000
S      -47.28640000     -32.30030000     -73.96840000
S      -47.09190000     -36.51790000     -70.99060000
C      -45.89910000     -31.81240000     -72.84460000
H      -45.97670000     -30.74090000     -72.56410000
H      -46.10880000     -32.33600000     -71.93230000
C      -45.55870000     -35.62810000     -70.34390000
H      -45.01650000     -36.31830000     -69.63710000
H      -45.88220000     -34.80840000     -69.71350000
C      -44.62530000     -35.16700000     -71.40880000
H      -44.24210000     -35.91720000     -72.09380000
H      -45.11470000     -34.50990000     -72.09590000
C      -44.63920000     -32.32550000     -73.50170000
H      -44.20900000     -31.79200000     -74.38850000
H      -44.89580000     -33.34170000     -73.63780000
C      -43.39310000     -32.29030000     -72.57060000
C      -42.53860000     -31.22720000     -72.76780000
C      -42.95470000     -33.18470000     -71.55550000
H      -42.68160000     -30.43910000     -73.52700000
C      -41.75970000     -32.78750000     -70.99650000
C      -43.37230000     -34.43110000     -70.93480000
C      -42.49240000     -34.94520000     -69.97910000
S      -41.13310000     -31.33260000     -71.74340000
S      -41.13050000     -33.81120000     -69.71360000
H      -42.63710000     -35.82470000     -69.37860000
