40
Properties=species:S:1:pos:R:3 #=T CELL(abcABC):=T 1.889726e+02=T 90.00000=T Traj:=T positionsangstrom=T Step:=T 0=T Bead:=T pbc="F F F"
C      -48.56900000     -33.47330000     -68.86130000
C      -48.37940000     -34.30360000     -70.03490000
C      -48.38300000     -33.67270000     -71.27190000
C      -48.51270000     -32.23800000     -71.36440000
C      -48.57960000     -31.45500000     -70.18850000
C      -48.61190000     -32.11040000     -68.89630000
H      -48.58130000     -34.02160000     -67.93290000
H      -48.24220000     -34.17450000     -72.16870000
H      -48.61460000     -30.38100000     -70.27550000
H      -48.66650000     -31.33420000     -67.99550000
C      -48.76770000     -31.71680000     -72.70350000
H      -48.92610000     -30.64610000     -72.73770000
H      -49.69940000     -32.20210000     -73.11210000
C      -48.41170000     -35.83130000     -69.89670000
H      -48.29400000     -35.95300000     -68.76430000
H      -49.37580000     -36.19580000     -70.24850000
S      -47.34060000     -32.20390000     -73.84430000
S      -47.02150000     -36.65770000     -70.85470000
C      -45.85730000     -32.18710000     -72.77150000
H      -45.64280000     -31.11430000     -72.51810000
H      -46.02750000     -32.63120000     -71.82640000
C      -45.42580000     -36.01980000     -70.19150000
H      -44.91710000     -36.84390000     -69.72720000
H      -45.71810000     -35.24970000     -69.45790000
C      -44.71360000     -35.19030000     -71.31040000
H      -44.35350000     -35.96780000     -72.02240000
H      -45.54940000     -34.62960000     -71.77070000
C      -44.59340000     -32.78990000     -73.58750000
H      -44.78200000     -32.27170000     -74.58770000
H      -44.64400000     -33.87960000     -73.83440000
C      -43.35420000     -32.41480000     -72.83600000
C      -42.50090000     -31.34560000     -73.09140000
C      -42.95320000     -33.21170000     -71.65270000
H      -42.54670000     -30.68490000     -73.89810000
C      -41.81570000     -32.66550000     -71.09980000
C      -43.50440000     -34.40120000     -70.90330000
C      -42.64960000     -34.73400000     -69.84210000
S      -41.17150000     -31.29190000     -71.89780000
S      -41.24350000     -33.69840000     -69.71820000
H      -42.75840000     -35.55400000     -69.18700000
