40
Properties=species:S:1:pos:R:3 #=T CELL(abcABC):=T 1.889726e+02=T 90.00000=T Traj:=T positionsangstrom=T Step:=T 0=T Bead:=T pbc="F F F"
C      -47.47110000     -33.65870000     -68.54020000
C      -48.10170000     -34.41240000     -69.53140000
C      -48.60260000     -33.70970000     -70.65920000
C      -48.44250000     -32.33040000     -70.83200000
C      -47.87860000     -31.59270000     -69.80990000
C      -47.42420000     -32.28450000     -68.55560000
H      -47.15190000     -34.20300000     -67.65910000
H      -49.01840000     -34.26140000     -71.45480000
H      -47.84020000     -30.50670000     -69.80510000
H      -47.16290000     -31.62980000     -67.67920000
C      -48.84450000     -31.79810000     -72.24600000
H      -48.81830000     -30.70680000     -72.35030000
H      -49.86720000     -32.15390000     -72.31590000
C      -48.18880000     -35.87810000     -69.44180000
H      -48.05920000     -36.17290000     -68.35020000
H      -49.03120000     -36.31370000     -69.93960000
S      -47.75590000     -32.44650000     -73.57520000
S      -46.77080000     -36.79030000     -70.24980000
C      -46.06680000     -31.84590000     -73.14240000
H      -45.99750000     -30.78840000     -73.49720000
H      -45.93730000     -31.93320000     -72.06290000
C      -45.25680000     -35.81470000     -70.13580000
H      -44.45080000     -36.55110000     -70.25580000
H      -45.25060000     -35.34340000     -69.16710000
C      -45.11930000     -34.63680000     -71.12770000
H      -45.03660000     -34.97250000     -72.20600000
H      -45.96060000     -34.00430000     -71.07790000
C      -45.02070000     -32.73870000     -73.83480000
H      -45.02480000     -32.52960000     -74.89160000
H      -45.23360000     -33.81840000     -73.80310000
C      -43.60840000     -32.57110000     -73.25520000
C      -42.59900000     -31.89470000     -73.91360000
C      -43.26930000     -33.04090000     -71.94470000
H      -42.68880000     -31.26470000     -74.66890000
C      -41.98150000     -32.58670000     -71.58730000
C      -43.84840000     -33.86660000     -70.92710000
C      -43.03240000     -34.00750000     -69.81510000
S      -41.14480000     -31.87580000     -72.94640000
S      -41.46190000     -33.21570000     -70.05940000
H      -43.32140000     -34.44980000     -68.82030000
