40
Properties=species:S:1:pos:R:3 #=T CELL(abcABC):=T 1.889726e+02=T 90.00000=T Traj:=T positionsangstrom=T Step:=T 0=T Bead:=T pbc="F F F"
C      -47.50870000     -33.86740000     -74.76130000
C      -47.26790000     -32.70010000     -74.00240000
C      -47.87310000     -32.46310000     -72.77110000
C      -48.69560000     -33.45570000     -72.24270000
C      -48.98110000     -34.56740000     -73.01390000
C      -48.38670000     -34.82640000     -74.25950000
H      -47.05590000     -33.95010000     -75.76750000
H      -47.50810000     -31.69410000     -72.11670000
H      -49.73750000     -35.27970000     -72.53720000
H      -48.72380000     -35.67560000     -74.81750000
C      -49.37770000     -33.38320000     -70.87300000
H      -50.46750000     -33.58550000     -70.97790000
H      -49.16040000     -32.45660000     -70.38820000
C      -46.44160000     -31.56510000     -74.70500000
H      -46.93530000     -31.34070000     -75.65750000
H      -46.44680000     -30.70430000     -74.01370000
S      -48.70620000     -34.76270000     -69.71720000
S      -44.71860000     -32.18730000     -74.97150000
C      -46.86220000     -34.63400000     -69.76830000
H      -46.39880000     -35.43980000     -69.13870000
H      -46.47490000     -34.86380000     -70.76230000
C      -44.04850000     -31.88400000     -73.35960000
H      -44.52210000     -31.03460000     -72.78980000
H      -43.03720000     -31.53350000     -73.38650000
C      -44.03330000     -33.10210000     -72.45660000
H      -45.08920000     -33.27960000     -72.13410000
H      -43.79470000     -34.01720000     -73.06240000
C      -46.13800000     -33.24660000     -69.62490000
H      -46.74910000     -32.75020000     -68.90650000
H      -46.21120000     -32.76270000     -70.56490000
C      -44.65710000     -33.36540000     -69.15100000
C      -44.39980000     -33.59270000     -67.83680000
C      -43.44220000     -33.32950000     -69.91170000
H      -45.24800000     -33.85260000     -67.15460000
C      -42.35250000     -33.52140000     -69.04820000
C      -43.07120000     -33.16820000     -71.28690000
C      -41.71570000     -33.19330000     -71.49200000
S      -42.71320000     -33.72950000     -67.41100000
S      -40.84450000     -33.34060000     -69.99180000
H      -41.17750000     -32.92260000     -72.36890000
