40
Properties=species:S:1:pos:R:3 #=T CELL(abcABC):=T 1.889726e+02=T 90.00000=T Traj:=T positionsangstrom=T Step:=T 0=T Bead:=T pbc="F F F"
C      -47.55160000     -33.93250000     -74.71600000
C      -47.27580000     -32.73760000     -74.00110000
C      -47.90220000     -32.45690000     -72.80050000
C      -48.69200000     -33.44670000     -72.19330000
C      -48.83130000     -34.68050000     -72.83420000
C      -48.32880000     -34.92030000     -74.12310000
H      -47.11750000     -34.06430000     -75.75970000
H      -47.96210000     -31.44580000     -72.48370000
H      -49.33640000     -35.53710000     -72.38090000
H      -48.39730000     -35.85430000     -74.63500000
C      -49.17870000     -33.21370000     -70.84400000
H      -50.25680000     -33.12110000     -70.81040000
H      -48.71080000     -32.27570000     -70.37260000
C      -46.58830000     -31.58310000     -74.62630000
H      -46.95300000     -31.27560000     -75.64080000
H      -46.54010000     -30.68260000     -74.00000000
S      -48.74560000     -34.55470000     -69.61850000
S      -44.75150000     -31.73860000     -75.02910000
C      -46.85280000     -34.67620000     -69.42710000
H      -46.72440000     -35.00170000     -68.42680000
H      -46.69470000     -35.38390000     -70.22130000
C      -43.77400000     -31.91570000     -73.37120000
H      -44.05780000     -31.21510000     -72.63390000
H      -42.78560000     -31.86630000     -73.80680000
C      -44.07420000     -33.22660000     -72.60190000
H      -45.16930000     -33.19380000     -72.32290000
H      -43.88610000     -34.12830000     -73.22540000
C      -46.18260000     -33.30490000     -69.52800000
H      -46.52440000     -32.47500000     -68.82070000
H      -46.38410000     -32.79430000     -70.49020000
C      -44.67950000     -33.44130000     -69.12920000
C      -44.43930000     -33.76690000     -67.83150000
C      -43.49750000     -33.42420000     -69.97040000
H      -45.21970000     -33.80900000     -67.08320000
C      -42.40230000     -33.59060000     -69.15980000
C      -43.15930000     -33.25240000     -71.37800000
C      -41.77430000     -33.27520000     -71.60800000
S      -42.65410000     -33.81230000     -67.50310000
S      -40.88070000     -33.53760000     -70.12500000
H      -41.26220000     -33.33490000     -72.58860000
