40
Properties=species:S:1:pos:R:3 #=T CELL(abcABC):=T 1.889726e+02=T 90.00000=T Traj:=T positionsangstrom=T Step:=T 0=T Bead:=T pbc="F F F"
C      -48.13770000     -33.87090000     -69.03970000
C      -48.18110000     -34.75930000     -70.13100000
C      -48.55050000     -34.25640000     -71.42590000
C      -48.66650000     -32.84450000     -71.56400000
C      -48.51900000     -31.95670000     -70.44500000
C      -48.22520000     -32.44340000     -69.20340000
H      -47.99200000     -34.35950000     -68.01580000
H      -48.58640000     -34.93800000     -72.23640000
H      -48.78870000     -30.92320000     -70.62960000
H      -48.23040000     -31.89640000     -68.25100000
C      -49.06960000     -32.33230000     -72.89870000
H      -49.73250000     -31.52120000     -72.88300000
H      -49.42350000     -33.19020000     -73.45930000
C      -47.88350000     -36.20970000     -69.84630000
H      -47.60390000     -36.51280000     -68.85220000
H      -48.85930000     -36.77710000     -69.95960000
S      -47.49090000     -31.75360000     -73.69950000
S      -46.68930000     -36.78490000     -71.06400000
C      -46.14550000     -31.93720000     -72.45300000
H      -45.95720000     -31.07020000     -71.80530000
H      -46.27720000     -32.76510000     -71.74250000
C      -45.22780000     -35.76070000     -70.57800000
H      -44.47490000     -36.35620000     -69.98330000
H      -45.53850000     -34.97790000     -69.85200000
C      -44.56690000     -35.11070000     -71.79700000
H      -44.41500000     -35.94870000     -72.45620000
H      -45.43600000     -34.50660000     -72.19930000
C      -44.87160000     -32.27880000     -73.27370000
H      -44.94520000     -31.58520000     -74.05830000
H      -44.92740000     -33.29670000     -73.67200000
C      -43.60520000     -32.03510000     -72.42540000
C      -42.97500000     -30.80420000     -72.35170000
C      -43.02160000     -32.98220000     -71.57150000
H      -43.33810000     -29.82430000     -72.72330000
C      -41.84020000     -32.54310000     -70.91660000
C      -43.27840000     -34.44590000     -71.35470000
C      -42.36250000     -34.94100000     -70.41500000
S      -41.63170000     -30.83130000     -71.22550000
S      -41.14780000     -33.74430000     -69.86160000
H      -42.42950000     -35.89370000     -69.92010000
