40
Properties=species:S:1:pos:R:3 #=T CELL(abcABC):=T 1.889726e+02=T 90.00000=T Traj:=T positionsangstrom=T Step:=T 0=T Bead:=T pbc="F F F"
C      -48.33050000     -34.41250000     -69.33310000
C      -48.46560000     -34.77360000     -70.66920000
C      -48.81000000     -33.70320000     -71.57070000
C      -48.78900000     -32.35670000     -71.13090000
C      -48.80860000     -32.04120000     -69.79760000
C      -48.58720000     -33.08080000     -68.88600000
H      -48.02440000     -35.14020000     -68.51100000
H      -49.01990000     -33.92150000     -72.61170000
H      -49.05410000     -31.05000000     -69.41560000
H      -48.41600000     -32.83920000     -67.80710000
C      -48.69980000     -31.25510000     -72.08130000
H      -48.43370000     -30.31140000     -71.54110000
H      -49.72100000     -31.08550000     -72.61150000
C      -48.34060000     -36.25420000     -71.11030000
H      -48.59400000     -36.94190000     -70.27560000
H      -49.09710000     -36.47550000     -71.86830000
S      -47.43800000     -31.51510000     -73.46010000
S      -46.63120000     -36.67470000     -71.79950000
C      -45.92270000     -32.19510000     -72.50310000
H      -45.72380000     -31.58850000     -71.61480000
H      -46.19930000     -33.20410000     -72.16840000
C      -45.46330000     -35.62850000     -70.84430000
H      -45.14900000     -36.10380000     -69.88730000
H      -45.94060000     -34.65920000     -70.47020000
C      -44.28660000     -35.36130000     -71.77240000
H      -43.84450000     -36.20470000     -72.32690000
H      -44.73870000     -34.84360000     -72.63200000
C      -44.63130000     -32.32640000     -73.34520000
H      -44.56400000     -31.46050000     -74.10800000
H      -44.68630000     -33.25780000     -73.86020000
C      -43.49740000     -32.20050000     -72.34980000
C      -42.76300000     -31.02000000     -72.36070000
C      -42.98010000     -33.15190000     -71.38810000
H      -42.92980000     -30.10300000     -72.87770000
C      -41.86710000     -32.63840000     -70.70620000
C      -43.21810000     -34.51900000     -71.07510000
C      -42.30210000     -34.99360000     -70.16530000
S      -41.55350000     -30.98410000     -71.15120000
S      -41.12020000     -33.82850000     -69.61490000
H      -42.14890000     -35.94220000     -69.70740000
