40
Properties=species:S:1:pos:R:3 #=T CELL(abcABC):=T 1.889726e+02=T 90.00000=T Traj:=T positionsangstrom=T Step:=T 0=T Bead:=T pbc="F F F"
C      -48.26510000     -34.39850000     -69.20680000
C      -48.42230000     -34.80520000     -70.55560000
C      -48.64430000     -33.77730000     -71.49920000
C      -48.71930000     -32.45950000     -71.12290000
C      -48.56270000     -32.04530000     -69.76840000
C      -48.34350000     -33.04720000     -68.83980000
H      -47.93680000     -35.06750000     -68.35050000
H      -48.53670000     -34.04860000     -72.58110000
H      -48.58760000     -31.04140000     -69.49280000
H      -48.46660000     -32.83280000     -67.75260000
C      -48.80380000     -31.40670000     -72.18230000
H      -48.68670000     -30.41260000     -71.73800000
H      -49.69320000     -31.42080000     -72.68280000
C      -48.31770000     -36.28850000     -71.08030000
H      -48.68370000     -36.99500000     -70.29820000
H      -48.99520000     -36.33900000     -71.94770000
S      -47.51130000     -31.62760000     -73.43800000
S      -46.61630000     -36.62210000     -71.68960000
C      -46.16330000     -32.34180000     -72.45550000
H      -46.23450000     -31.78720000     -71.50710000
H      -46.34030000     -33.39240000     -72.29490000
C      -45.32020000     -35.60040000     -70.82160000
H      -45.08300000     -36.17310000     -69.96390000
H      -45.61040000     -34.59680000     -70.60890000
C      -44.09190000     -35.51860000     -71.81140000
H      -43.57690000     -36.49370000     -71.78080000
H      -44.30220000     -35.15460000     -72.86560000
C      -44.82220000     -32.33220000     -73.19160000
H      -44.77680000     -31.56680000     -73.97470000
H      -44.69970000     -33.13260000     -73.79840000
C      -43.61810000     -32.09450000     -72.34490000
C      -42.99970000     -30.88840000     -72.30050000
C      -42.94300000     -33.13830000     -71.57710000
H      -43.38610000     -29.95100000     -72.79850000
C      -41.88910000     -32.56680000     -70.84000000
C      -43.03260000     -34.56630000     -71.31540000
C      -42.21760000     -35.00630000     -70.30200000
S      -41.61620000     -30.90000000     -71.19240000
S      -41.23680000     -33.67530000     -69.65950000
H      -42.11590000     -35.96680000     -69.82360000
