40
Properties=species:S:1:pos:R:3 #=T CELL(abcABC):=T 1.889726e+02=T 90.00000=T Traj:=T positionsangstrom=T Step:=T 0=T Bead:=T pbc="F F F"
C      -48.10460000     -30.98570000     -72.33580000
C      -47.47620000     -30.54800000     -71.14740000
C      -47.70590000     -31.16850000     -69.96180000
C      -48.51100000     -32.36210000     -69.82300000
C      -49.18410000     -32.72500000     -71.00820000
C      -48.94200000     -32.07600000     -72.24900000
H      -47.90370000     -30.50720000     -73.28440000
H      -46.99450000     -30.91500000     -69.11440000
H      -49.80590000     -33.64430000     -70.99800000
H      -49.42220000     -32.59100000     -73.13430000
C      -48.62200000     -33.23140000     -68.57680000
H      -49.63660000     -33.37750000     -68.17150000
H      -47.87780000     -32.90380000     -67.82260000
C      -46.52130000     -29.38200000     -71.22460000
H      -46.50060000     -28.67050000     -72.05760000
H      -46.69610000     -28.95190000     -70.20110000
S      -47.89130000     -34.99690000     -68.75970000
S      -44.67040000     -30.05780000     -71.18120000
C      -46.17690000     -34.67910000     -69.40820000
H      -45.80810000     -33.63050000     -69.24790000
H      -45.52430000     -35.25840000     -68.75020000
C      -44.60710000     -30.97460000     -72.83310000
H      -43.55590000     -30.80940000     -73.12610000
H      -45.05130000     -30.39650000     -73.58850000
C      -44.86830000     -32.54830000     -72.91330000
H      -45.42870000     -32.74830000     -72.03820000
H      -45.48030000     -32.86090000     -73.79390000
C      -45.96560000     -35.02630000     -70.89600000
H      -46.38890000     -34.21760000     -71.57910000
H      -46.50190000     -35.95670000     -71.15850000
C      -44.49390000     -35.35920000     -71.18100000
C      -43.92330000     -36.53360000     -70.76180000
C      -43.56950000     -34.60720000     -71.99610000
H      -44.47400000     -37.29830000     -70.19460000
C      -42.41290000     -35.29830000     -72.22220000
C      -43.64190000     -33.41120000     -72.84120000
C      -42.49000000     -33.23250000     -73.59940000
S      -42.33350000     -36.81830000     -71.28660000
S      -41.33550000     -34.60430000     -73.39900000
H      -42.20750000     -32.35120000     -74.19930000
