40
Properties=species:S:1:pos:R:3 #=T CELL(abcABC):=T 1.889726e+02=T 90.00000=T Traj:=T positionsangstrom=T Step:=T 0=T Bead:=T pbc="F F F"
C      -48.48150000     -34.55550000     -69.78050000
C      -48.26520000     -34.78190000     -71.07320000
C      -48.41280000     -33.72540000     -71.95990000
C      -48.72350000     -32.44010000     -71.52470000
C      -48.94750000     -32.22080000     -70.13420000
C      -48.85620000     -33.30270000     -69.28110000
H      -48.37320000     -35.42790000     -69.11250000
H      -48.24720000     -33.84850000     -73.08020000
H      -49.33170000     -31.30350000     -69.80930000
H      -49.14030000     -33.26040000     -68.23730000
C      -48.80980000     -31.34740000     -72.48280000
H      -48.92310000     -30.36100000     -72.05520000
H      -49.54210000     -31.42520000     -73.23330000
C      -47.98880000     -36.22650000     -71.59040000
H      -48.05300000     -36.98560000     -70.85150000
H      -48.88670000     -36.45290000     -72.18910000
S      -47.32400000     -31.29420000     -73.64630000
S      -46.49310000     -36.44400000     -72.56850000
C      -45.94660000     -31.08220000     -72.42980000
H      -45.54910000     -30.10370000     -72.56300000
H      -46.42690000     -31.06370000     -71.41790000
C      -45.31510000     -35.60880000     -71.44250000
H      -45.14640000     -36.30080000     -70.64030000
H      -45.76780000     -34.70910000     -70.96980000
C      -43.94090000     -35.42900000     -72.05670000
H      -43.58440000     -36.47860000     -72.17940000
H      -44.05050000     -34.98100000     -73.02500000
C      -44.90420000     -32.16580000     -72.53450000
H      -44.51750000     -32.05720000     -73.53010000
H      -45.49340000     -33.10360000     -72.47990000
C      -43.78210000     -32.10810000     -71.54520000
C      -43.25810000     -30.88940000     -71.10960000
C      -42.97040000     -33.20970000     -71.04760000
H      -43.72030000     -29.96050000     -71.31060000
C      -41.90470000     -32.83020000     -70.20260000
C      -42.98320000     -34.63560000     -71.21760000
C      -42.06570000     -35.30930000     -70.43310000
S      -41.98160000     -31.10990000     -69.87020000
S      -41.00800000     -34.19910000     -69.57200000
H      -41.95900000     -36.40180000     -70.32400000
