40
Properties=species:S:1:pos:R:3 #=T CELL(abcABC):=T 1.889726e+02=T 90.00000=T Traj:=T positionsangstrom=T Step:=T 0=T Bead:=T pbc="F F F"
C      -48.86490000     -34.52330000     -69.75020000
C      -48.46710000     -34.82220000     -71.06920000
C      -48.52810000     -33.79250000     -72.01380000
C      -48.75320000     -32.47950000     -71.60610000
C      -49.06410000     -32.20120000     -70.18390000
C      -49.11430000     -33.24170000     -69.29150000
H      -48.86020000     -35.25570000     -68.95860000
H      -48.47860000     -34.10960000     -73.08350000
H      -49.06430000     -31.13360000     -69.90090000
H      -49.44530000     -33.09750000     -68.22440000
C      -48.72560000     -31.32230000     -72.53310000
H      -48.89940000     -30.40600000     -71.88800000
H      -49.52160000     -31.38220000     -73.29730000
C      -48.25710000     -36.28860000     -71.51590000
H      -48.19330000     -37.00520000     -70.61040000
H      -48.92150000     -36.71500000     -72.23410000
S      -47.16670000     -31.19960000     -73.57860000
S      -46.55140000     -36.46830000     -72.37900000
C      -45.89120000     -31.40400000     -72.24730000
H      -45.52880000     -30.37940000     -71.95070000
H      -46.20670000     -31.98760000     -71.39250000
C      -45.26380000     -35.60400000     -71.25620000
H      -45.20230000     -36.15950000     -70.27650000
H      -45.57740000     -34.58120000     -71.10470000
C      -43.93990000     -35.46890000     -72.09690000
H      -43.53400000     -36.38520000     -72.45260000
H      -44.24020000     -34.85250000     -72.93770000
C      -44.72070000     -32.14750000     -72.77870000
H      -44.28900000     -31.72490000     -73.69640000
H      -44.90950000     -33.17300000     -73.06100000
C      -43.63380000     -32.14490000     -71.67780000
C      -43.16380000     -30.91800000     -71.12620000
C      -42.89770000     -33.23650000     -71.17990000
H      -43.56530000     -29.97820000     -71.17500000
C      -41.94080000     -32.80860000     -70.19140000
C      -42.85060000     -34.65620000     -71.37230000
C      -41.79530000     -35.25140000     -70.64000000
S      -41.95740000     -31.10700000     -69.94450000
S      -41.03150000     -34.09270000     -69.50830000
H      -41.68930000     -36.33720000     -70.44810000
