40
Properties=species:S:1:pos:R:3 #=T CELL(abcABC):=T 1.889726e+02=T 90.00000=T Traj:=T positionsangstrom=T Step:=T 0=T Bead:=T pbc="F F F"
C      -48.96370000     -34.45300000     -69.62430000
C      -48.61950000     -34.83910000     -70.89560000
C      -48.44270000     -33.82960000     -71.89500000
C      -48.88300000     -32.55400000     -71.61040000
C      -49.47780000     -32.23410000     -70.37190000
C      -49.51090000     -33.17450000     -69.36930000
H      -48.88510000     -35.15430000     -68.77380000
H      -48.07160000     -34.13260000     -72.83130000
H      -49.85750000     -31.16830000     -70.20900000
H      -49.83960000     -32.80870000     -68.42870000
C      -48.81760000     -31.48450000     -72.67570000
H      -48.93870000     -30.44410000     -72.27640000
H      -49.56190000     -31.57440000     -73.49200000
C      -48.15240000     -36.28940000     -71.14060000
H      -48.16290000     -36.86280000     -70.21560000
H      -48.95280000     -36.89380000     -71.65790000
S      -47.14640000     -31.30480000     -73.54770000
S      -46.73000000     -36.55880000     -72.24270000
C      -45.90540000     -31.66180000     -72.13130000
H      -46.03360000     -30.81470000     -71.49040000
H      -46.21090000     -32.59110000     -71.57860000
C      -45.50500000     -35.40960000     -71.41850000
H      -45.49530000     -35.75940000     -70.38970000
H      -46.00640000     -34.41260000     -71.36860000
C      -44.13570000     -35.22800000     -72.10690000
H      -43.81120000     -36.15030000     -72.60540000
H      -44.43550000     -34.61700000     -72.92870000
C      -44.45600000     -31.89860000     -72.72740000
H      -44.30160000     -31.19260000     -73.55490000
H      -44.40490000     -32.89820000     -73.18900000
C      -43.37620000     -31.94140000     -71.65070000
C      -42.85640000     -30.78340000     -71.22250000
C      -42.75960000     -33.11840000     -71.17850000
H      -43.05900000     -29.71690000     -71.49480000
C      -41.72890000     -32.84330000     -70.32600000
C      -43.00480000     -34.56730000     -71.28440000
C      -42.10130000     -35.26400000     -70.50840000
S      -41.47440000     -31.07510000     -70.20940000
S      -40.98800000     -34.24040000     -69.55170000
H      -41.97970000     -36.34490000     -70.40730000
