40
Properties=species:S:1:pos:R:3 #=T CELL(abcABC):=T 1.889726e+02=T 90.00000=T Traj:=T positionsangstrom=T Step:=T 0=T Bead:=T pbc="F F F"
C      -47.63300000     -34.88170000     -69.67970000
C      -48.04970000     -34.93760000     -71.02030000
C      -48.42860000     -33.76720000     -71.69910000
C      -48.46100000     -32.52920000     -71.04110000
C      -48.15570000     -32.50610000     -69.64250000
C      -47.65620000     -33.61720000     -68.96630000
H      -47.18490000     -35.82220000     -69.27670000
H      -48.52760000     -33.71290000     -72.76140000
H      -48.31880000     -31.61290000     -69.00770000
H      -47.17280000     -33.49040000     -68.05860000
C      -48.98450000     -31.35110000     -71.76320000
H      -49.42360000     -30.59340000     -71.08060000
H      -49.72770000     -31.68020000     -72.54280000
C      -48.02010000     -36.33350000     -71.65240000
H      -48.08980000     -37.14360000     -70.95870000
H      -48.92580000     -36.38040000     -72.32650000
S      -47.74360000     -30.38590000     -72.82710000
S      -46.66230000     -36.50590000     -72.87290000
C      -46.14860000     -30.70980000     -71.88950000
H      -45.44930000     -29.93400000     -72.17440000
H      -46.29760000     -30.63020000     -70.84060000
C      -45.19370000     -35.95090000     -71.88340000
H      -44.71880000     -36.71090000     -71.37160000
H      -45.54680000     -35.26960000     -71.07240000
C      -44.10540000     -35.29640000     -72.77870000
H      -43.61300000     -36.08320000     -73.35620000
H      -44.47560000     -34.54930000     -73.48280000
C      -45.38930000     -32.03480000     -72.16940000
H      -45.20340000     -32.18720000     -73.19400000
H      -45.86980000     -32.94720000     -71.76510000
C      -44.08080000     -32.05640000     -71.35800000
C      -43.62830000     -31.06340000     -70.56070000
C      -43.10260000     -33.14550000     -71.36680000
H      -43.99730000     -30.17270000     -70.28370000
C      -41.99320000     -32.94010000     -70.56760000
C      -43.07580000     -34.54690000     -71.92460000
C      -41.95390000     -35.18130000     -71.52820000
S      -42.20490000     -31.48770000     -69.64430000
S      -40.83770000     -34.27610000     -70.49400000
H      -41.58090000     -36.08110000     -71.91410000
