40
Properties=species:S:1:pos:R:3 #=T CELL(abcABC):=T 1.889726e+02=T 90.00000=T Traj:=T positionsangstrom=T Step:=T 0=T Bead:=T pbc="F F F"
C      -47.92790000     -34.87850000     -69.54170000
C      -48.11060000     -35.03520000     -70.96330000
C      -48.34590000     -33.87590000     -71.71890000
C      -48.53080000     -32.62110000     -71.06810000
C      -48.37850000     -32.52550000     -69.69130000
C      -48.04350000     -33.68250000     -68.93800000
H      -47.68610000     -35.83310000     -68.99260000
H      -48.46990000     -33.89460000     -72.80320000
H      -48.30570000     -31.55610000     -69.18960000
H      -47.77090000     -33.62180000     -67.88300000
C      -48.78450000     -31.37250000     -71.97910000
H      -48.93060000     -30.49130000     -71.37540000
H      -49.73550000     -31.67960000     -72.36560000
C      -48.02530000     -36.36300000     -71.63490000
H      -47.91560000     -37.25430000     -71.02760000
H      -48.92940000     -36.52900000     -72.24270000
S      -47.70370000     -31.11440000     -73.33780000
S      -46.66500000     -36.33240000     -72.87270000
C      -46.08730000     -30.87160000     -72.47010000
H      -45.55520000     -29.96110000     -72.87070000
H      -46.37670000     -30.61990000     -71.46260000
C      -45.05650000     -35.95260000     -71.80230000
H      -44.68330000     -36.90590000     -71.52630000
H      -45.43880000     -35.31260000     -70.98240000
C      -43.98210000     -35.19390000     -72.57970000
H      -43.40530000     -35.83890000     -73.21460000
H      -44.41890000     -34.43680000     -73.18490000
C      -45.17400000     -32.06630000     -72.32250000
H      -44.69980000     -32.14070000     -73.35500000
H      -45.75610000     -32.95390000     -72.02400000
C      -44.01530000     -31.94390000     -71.33800000
C      -43.57870000     -30.84390000     -70.67470000
C      -43.16960000     -33.10130000     -71.12640000
H      -44.14030000     -29.89750000     -70.51050000
C      -42.06080000     -32.76490000     -70.30660000
C      -43.00700000     -34.45530000     -71.64900000
C      -41.89790000     -35.13410000     -71.18340000
S      -42.08480000     -31.13030000     -69.69530000
S      -40.96670000     -34.14210000     -70.08960000
H      -41.42850000     -36.03670000     -71.45460000
