40
Properties=species:S:1:pos:R:3 #=T CELL(abcABC):=T 1.889726e+02=T 90.00000=T Traj:=T positionsangstrom=T Step:=T 0=T Bead:=T pbc="F F F"
C      -47.52900000     -34.76540000     -69.49640000
C      -47.88810000     -35.04250000     -70.82990000
C      -48.41740000     -33.98580000     -71.67160000
C      -48.63630000     -32.73290000     -71.08540000
C      -48.37010000     -32.54220000     -69.69770000
C      -47.79230000     -33.51850000     -68.89010000
H      -47.01090000     -35.50280000     -68.94850000
H      -48.71910000     -34.17560000     -72.70120000
H      -48.58160000     -31.58870000     -69.23780000
H      -47.52520000     -33.35720000     -67.83040000
C      -49.15420000     -31.55210000     -71.89940000
H      -49.57120000     -30.81210000     -71.25080000
H      -49.94150000     -31.74360000     -72.62050000
C      -47.79220000     -36.39760000     -71.48280000
H      -47.40220000     -37.05750000     -70.70190000
H      -48.75030000     -36.79140000     -71.86460000
S      -47.81030000     -30.72070000     -73.01570000
S      -46.61820000     -36.34930000     -72.97340000
C      -46.22710000     -30.83300000     -71.95030000
H      -45.76730000     -29.91040000     -72.06670000
H      -46.57380000     -31.03970000     -70.92630000
C      -45.14110000     -35.74410000     -71.99020000
H      -44.79410000     -36.59980000     -71.39870000
H      -45.47810000     -35.00760000     -71.32340000
C      -44.02660000     -35.12580000     -72.84050000
H      -43.51000000     -35.73550000     -73.53460000
H      -44.59590000     -34.39950000     -73.43920000
C      -45.28330000     -32.01640000     -72.22210000
H      -45.14300000     -32.18940000     -73.33820000
H      -45.74730000     -32.96220000     -71.87980000
C      -43.95740000     -31.99410000     -71.50170000
C      -43.52260000     -30.93540000     -70.72540000
C      -43.08060000     -33.13090000     -71.35110000
H      -43.97870000     -29.94970000     -70.80210000
C      -42.06260000     -32.92460000     -70.39670000
C      -43.01700000     -34.42630000     -71.88590000
C      -41.96490000     -35.17090000     -71.33690000
S      -42.00720000     -31.25120000     -69.83500000
S      -41.05790000     -34.33580000     -70.10430000
H      -41.95080000     -36.25560000     -71.56410000
