40
Properties=species:S:1:pos:R:3 #=T CELL(abcABC):=T 1.889726e+02=T 90.00000=T Traj:=T positionsangstrom=T Step:=T 0=T Bead:=T pbc="F F F"
C      -48.16660000     -35.29300000     -70.05970000
C      -48.26500000     -34.90230000     -71.39930000
C      -48.58500000     -33.60160000     -71.72950000
C      -48.75720000     -32.68930000     -70.67090000
C      -48.67210000     -33.06790000     -69.31710000
C      -48.36840000     -34.39600000     -69.03870000
H      -47.79500000     -36.28290000     -69.90700000
H      -48.50300000     -33.15640000     -72.73570000
H      -48.89880000     -32.42840000     -68.41270000
H      -48.37980000     -34.73390000     -68.01970000
C      -49.01750000     -31.26370000     -71.06020000
H      -49.12830000     -30.63950000     -70.18590000
H      -49.96720000     -31.16580000     -71.63470000
C      -48.16330000     -36.01070000     -72.45520000
H      -48.50520000     -36.92370000     -71.93290000
H      -48.89660000     -35.78790000     -73.21800000
S      -47.70160000     -30.51720000     -72.08810000
S      -46.58080000     -36.05930000     -73.43640000
C      -46.12690000     -30.68620000     -71.02740000
H      -45.58820000     -29.73470000     -71.11490000
H      -46.32510000     -30.80940000     -69.95230000
C      -45.16770000     -35.50270000     -72.23110000
H      -44.85630000     -36.39620000     -71.77230000
H      -45.59290000     -34.94340000     -71.40480000
C      -44.16960000     -34.77690000     -73.11350000
H      -43.78650000     -35.46620000     -73.81010000
H      -44.75970000     -33.94730000     -73.55840000
C      -45.29070000     -31.82180000     -71.62470000
H      -45.34060000     -31.74770000     -72.76340000
H      -45.83380000     -32.70820000     -71.45120000
C      -43.91700000     -32.02520000     -70.97320000
C      -43.27520000     -31.12280000     -70.12870000
C      -43.05930000     -33.16160000     -71.29360000
H      -43.65190000     -30.34030000     -69.56410000
C      -41.86120000     -33.12660000     -70.56800000
C      -42.98410000     -34.32590000     -72.26310000
C      -41.83990000     -35.06960000     -72.20720000
S      -41.76930000     -31.75500000     -69.46760000
S      -40.68360000     -34.38290000     -71.00820000
H      -41.62850000     -35.98400000     -72.81120000
