40
Properties=species:S:1:pos:R:3 #=T CELL(abcABC):=T 1.889726e+02=T 90.00000=T Traj:=T positionsangstrom=T Step:=T 0=T Bead:=T pbc="F F F"
C      -47.59730000     -31.97230000     -70.75460000
C      -47.36210000     -32.12690000     -72.12050000
C      -47.42400000     -33.40540000     -72.69600000
C      -47.44580000     -34.55000000     -71.89740000
C      -47.63800000     -34.37720000     -70.48290000
C      -47.68880000     -33.12300000     -69.93360000
H      -47.59370000     -30.92470000     -70.41450000
H      -47.41600000     -33.58460000     -73.84970000
H      -47.69860000     -35.20570000     -69.90120000
H      -47.75880000     -33.09930000     -68.81420000
C      -47.61060000     -35.89640000     -72.55000000
H      -47.85620000     -35.82250000     -73.58480000
H      -48.29540000     -36.52780000     -71.99270000
C      -47.25600000     -30.92290000     -72.95360000
H      -47.24270000     -31.12790000     -74.05450000
H      -48.16400000     -30.37420000     -72.71240000
S      -45.99780000     -36.83600000     -72.79660000
S      -45.88900000     -29.69080000     -72.53880000
C      -44.87330000     -35.55530000     -73.58820000
H      -44.80880000     -35.83090000     -74.66130000
H      -45.31620000     -34.58520000     -73.71700000
C      -44.43620000     -30.51660000     -73.25380000
H      -43.46700000     -30.07290000     -72.98060000
H      -44.46580000     -30.64240000     -74.31250000
C      -44.14030000     -31.95470000     -72.69820000
H      -44.91740000     -32.64340000     -72.97300000
H      -43.16630000     -32.34880000     -73.17240000
C      -43.58790000     -35.32450000     -72.78920000
H      -42.89590000     -34.63720000     -73.23360000
H      -42.95910000     -36.24830000     -72.74790000
C      -43.80280000     -34.87610000     -71.27390000
C      -43.70610000     -35.82930000     -70.24860000
C      -43.84960000     -33.55360000     -70.72690000
H      -43.51700000     -36.92300000     -70.34360000
C      -43.72170000     -33.54480000     -69.29930000
C      -43.94040000     -32.14070000     -71.22560000
C      -44.01040000     -31.21770000     -70.22440000
S      -43.64560000     -35.15740000     -68.63140000
S      -43.79750000     -31.83770000     -68.59030000
H      -44.02840000     -30.21450000     -70.29200000
