40
Properties=species:S:1:pos:R:3 #=T CELL(abcABC):=T 1.889726e+02=T 90.00000=T Traj:=T positionsangstrom=T Step:=T 0=T Bead:=T pbc="F F F"
C      -47.96450000     -35.18970000     -69.94660000
C      -48.25280000     -34.91920000     -71.34820000
C      -48.60210000     -33.62650000     -71.72020000
C      -48.71800000     -32.62300000     -70.72810000
C      -48.48730000     -32.89500000     -69.35970000
C      -48.13140000     -34.17600000     -68.97590000
H      -47.81200000     -36.22530000     -69.58640000
H      -48.80790000     -33.48380000     -72.73160000
H      -48.76740000     -32.08810000     -68.61720000
H      -47.89360000     -34.21440000     -67.99370000
C      -48.94790000     -31.19020000     -71.06120000
H      -49.13400000     -30.58260000     -70.21940000
H      -49.79710000     -31.13560000     -71.72430000
C      -48.21230000     -36.06660000     -72.28050000
H      -48.26650000     -37.04860000     -71.82590000
H      -49.08670000     -36.02770000     -72.90340000
S      -47.62270000     -30.54740000     -72.19010000
S      -46.72680000     -36.06810000     -73.34030000
C      -46.19720000     -30.83180000     -71.18750000
H      -45.68020000     -29.91410000     -71.10750000
H      -46.55440000     -31.19400000     -70.18020000
C      -45.42820000     -35.61330000     -72.17060000
H      -44.93720000     -36.55610000     -71.77760000
H      -45.71710000     -34.94490000     -71.34420000
C      -44.28730000     -34.74790000     -72.98100000
H      -43.89300000     -35.33240000     -73.80760000
H      -44.75070000     -33.83000000     -73.46840000
C      -45.16870000     -31.86280000     -71.77630000
H      -44.80910000     -31.55300000     -72.72820000
H      -45.68690000     -32.87780000     -71.90190000
C      -43.93070000     -32.10150000     -70.98410000
C      -43.37510000     -31.20180000     -70.12760000
C      -43.02770000     -33.20160000     -71.24580000
H      -43.70150000     -30.23740000     -69.79650000
C      -41.81430000     -33.10980000     -70.66500000
C      -43.10670000     -34.39980000     -72.10920000
C      -41.92440000     -35.05260000     -72.09730000
S      -41.72610000     -31.70070000     -69.62280000
S      -40.71300000     -34.40870000     -70.99770000
H      -41.75680000     -36.02530000     -72.46520000
