40
Properties=species:S:1:pos:R:3 #=T CELL(abcABC):=T 1.889726e+02=T 90.00000=T Traj:=T positionsangstrom=T Step:=T 0=T Bead:=T pbc="F F F"
C      -47.72640000     -34.83950000     -69.69570000
C      -48.22920000     -34.79990000     -71.01060000
C      -48.64720000     -33.56250000     -71.55500000
C      -48.49660000     -32.43500000     -70.76500000
C      -48.02590000     -32.53880000     -69.42470000
C      -47.67910000     -33.70040000     -68.90920000
H      -47.40500000     -35.85370000     -69.30340000
H      -49.14640000     -33.56830000     -72.57650000
H      -47.84040000     -31.68680000     -68.84740000
H      -47.30200000     -33.63770000     -67.89040000
C      -48.88380000     -31.09820000     -71.42710000
H      -49.00580000     -30.35580000     -70.59450000
H      -49.86150000     -31.22100000     -72.02950000
C      -48.21070000     -36.10120000     -71.77420000
H      -47.90910000     -37.08060000     -71.19140000
H      -49.18300000     -36.33600000     -72.22550000
S      -47.61940000     -30.74710000     -72.69850000
S      -46.91870000     -36.03990000     -73.12080000
C      -46.09120000     -30.69010000     -71.62890000
H      -45.44720000     -29.80770000     -71.92000000
H      -46.29170000     -30.56300000     -70.58320000
C      -45.41810000     -35.65640000     -72.11800000
H      -45.10960000     -36.64620000     -71.71560000
H      -45.78680000     -35.12820000     -71.27590000
C      -44.29090000     -34.98650000     -73.02570000
H      -43.95600000     -35.77010000     -73.75880000
H      -44.80620000     -34.12870000     -73.49950000
C      -45.28460000     -31.97700000     -71.84890000
H      -45.15530000     -32.01490000     -72.94070000
H      -45.92120000     -32.76650000     -71.64870000
C      -43.94720000     -32.16740000     -71.16650000
C      -43.44780000     -31.25210000     -70.26550000
C      -43.10870000     -33.35010000     -71.32850000
H      -43.91560000     -30.31740000     -69.81440000
C      -41.89080000     -33.14000000     -70.57900000
C      -43.15080000     -34.53160000     -72.12850000
C      -41.92140000     -35.20210000     -71.99860000
S      -41.92040000     -31.73810000     -69.57120000
S      -40.79650000     -34.50280000     -70.79880000
H      -41.59010000     -36.04580000     -72.51280000
