40
Properties=species:S:1:pos:R:3 #=T CELL(abcABC):=T 1.889726e+02=T 90.00000=T Traj:=T positionsangstrom=T Step:=T 0=T Bead:=T pbc="F F F"
C      -47.58260000     -31.78160000     -70.86020000
C      -47.46530000     -31.99310000     -72.24040000
C      -47.49210000     -33.28190000     -72.78240000
C      -47.55980000     -34.42530000     -71.90720000
C      -47.62970000     -34.16890000     -70.53570000
C      -47.68740000     -32.83530000     -70.02990000
H      -47.56010000     -30.70330000     -70.62160000
H      -47.40820000     -33.34570000     -73.84040000
H      -47.63220000     -35.02270000     -69.96320000
H      -47.89460000     -32.77180000     -68.98290000
C      -47.63140000     -35.78580000     -72.48540000
H      -48.17120000     -35.71810000     -73.48580000
H      -48.25080000     -36.51700000     -71.86480000
C      -47.25690000     -30.85410000     -73.18340000
H      -47.22540000     -31.16750000     -74.20770000
H      -48.13080000     -30.16050000     -73.14480000
S      -46.03360000     -36.68710000     -72.66100000
S      -45.96830000     -29.67560000     -72.64730000
C      -44.94980000     -35.42320000     -73.52430000
H      -44.80870000     -35.67310000     -74.61080000
H      -45.44780000     -34.46090000     -73.36530000
C      -44.31590000     -30.55820000     -73.10290000
H      -43.62620000     -29.76560000     -72.72870000
H      -44.31080000     -30.38720000     -74.21450000
C      -44.07150000     -31.98250000     -72.62790000
H      -44.89270000     -32.70280000     -72.89080000
H      -43.34520000     -32.41360000     -73.27390000
C      -43.59070000     -35.22880000     -72.77410000
H      -43.22990000     -34.35200000     -73.36170000
H      -42.84610000     -36.01690000     -72.94760000
C      -43.75020000     -34.97820000     -71.25550000
C      -43.75440000     -36.01150000     -70.28310000
C      -43.88550000     -33.69590000     -70.68360000
H      -43.61240000     -37.07490000     -70.49340000
C      -43.86450000     -33.73310000     -69.27140000
C      -43.83650000     -32.28420000     -71.16710000
C      -43.74550000     -31.34920000     -70.18170000
S      -43.76550000     -35.31980000     -68.61480000
S      -43.55390000     -32.10330000     -68.54920000
H      -43.70400000     -30.32150000     -70.31600000
