40
Properties=species:S:1:pos:R:3 #=T CELL(abcABC):=T 1.889726e+02=T 90.00000=T Traj:=T positionsangstrom=T Step:=T 0=T Bead:=T pbc="F F F"
C      -47.74680000     -34.94440000     -69.48580000
C      -48.03950000     -34.99700000     -70.86560000
C      -48.43030000     -33.80910000     -71.50290000
C      -48.53020000     -32.57780000     -70.84530000
C      -48.35520000     -32.51460000     -69.47900000
C      -48.01700000     -33.71940000     -68.81780000
H      -47.64400000     -35.89420000     -68.95710000
H      -48.58480000     -33.77020000     -72.54050000
H      -48.43940000     -31.51490000     -68.94550000
H      -47.93680000     -33.97060000     -67.72650000
C      -48.89270000     -31.26020000     -71.60070000
H      -49.03980000     -30.41380000     -70.80120000
H      -49.83200000     -31.40670000     -72.18980000
C      -47.87480000     -36.22710000     -71.72360000
H      -47.55790000     -37.01520000     -71.05790000
H      -48.80600000     -36.61660000     -72.16520000
S      -47.56520000     -30.54660000     -72.72650000
S      -46.76370000     -36.10850000     -73.16500000
C      -45.96380000     -30.72980000     -71.84890000
H      -45.37310000     -29.83620000     -72.19810000
H      -46.16730000     -30.57360000     -70.79240000
C      -45.24030000     -35.72400000     -72.12350000
H      -44.99900000     -36.67460000     -71.69370000
H      -45.67040000     -35.13160000     -71.30720000
C      -44.10770000     -35.08810000     -72.87230000
H      -43.69420000     -35.86620000     -73.56280000
H      -44.58070000     -34.41880000     -73.53010000
C      -45.39480000     -32.10510000     -72.02970000
H      -45.15390000     -32.39090000     -73.08310000
H      -46.07690000     -32.94590000     -71.79140000
C      -44.11780000     -32.25870000     -71.15990000
C      -43.76080000     -31.33430000     -70.26370000
C      -43.09920000     -33.29080000     -71.33560000
H      -44.27910000     -30.45830000     -70.12830000
C      -42.01560000     -33.05360000     -70.56230000
C      -42.97310000     -34.51260000     -72.11990000
C      -41.75540000     -35.08000000     -71.97570000
S      -42.23110000     -31.63000000     -69.52910000
S      -40.75870000     -34.23350000     -70.76080000
H      -41.38470000     -35.96470000     -72.55810000
