40
Properties=species:S:1:pos:R:3 #=T CELL(abcABC):=T 1.889726e+02=T 90.00000=T Traj:=T positionsangstrom=T Step:=T 0=T Bead:=T pbc="F F F"
C      -47.85450000     -35.75370000     -70.65240000
C      -48.17340000     -35.18130000     -71.87460000
C      -48.62650000     -33.87320000     -71.97220000
C      -48.75940000     -33.09570000     -70.85470000
C      -48.58740000     -33.74760000     -69.58320000
C      -48.12580000     -35.03230000     -69.49050000
H      -47.40930000     -36.75210000     -70.64270000
H      -48.76990000     -33.51430000     -72.97570000
H      -48.55160000     -33.09450000     -68.72670000
H      -48.12530000     -35.48590000     -68.53190000
C      -49.14690000     -31.59720000     -70.84140000
H      -49.27820000     -31.30210000     -69.80480000
H      -50.05810000     -31.38370000     -71.38620000
C      -47.84080000     -35.96520000     -73.10260000
H      -47.39800000     -36.94200000     -72.84790000
H      -48.66960000     -36.13310000     -73.80700000
S      -47.84840000     -30.53780000     -71.73440000
S      -46.46690000     -35.05040000     -74.01710000
C      -46.21960000     -30.86520000     -70.80500000
H      -45.62740000     -29.99700000     -71.03130000
H      -46.48500000     -30.91110000     -69.75680000
C      -44.91750000     -35.39080000     -72.88290000
H      -44.63170000     -36.43910000     -73.05360000
H      -45.23650000     -35.25440000     -71.79880000
C      -43.88440000     -34.37600000     -73.26480000
H      -43.28450000     -34.64950000     -74.16600000
H      -44.39660000     -33.46130000     -73.55150000
C      -45.46020000     -32.12820000     -71.28320000
H      -45.33640000     -32.13300000     -72.36720000
H      -46.04480000     -33.03360000     -71.05420000
C      -44.15490000     -32.21990000     -70.55880000
C      -43.73840000     -31.50570000     -69.48870000
C      -43.10170000     -33.14780000     -71.06950000
H      -44.30410000     -30.60600000     -69.05840000
C      -41.94310000     -32.99640000     -70.31670000
C      -42.95700000     -34.16190000     -72.06310000
C      -41.74470000     -34.79290000     -71.96510000
S      -42.01470000     -31.77700000     -69.05160000
S      -40.64870000     -34.12350000     -70.75950000
H      -41.45010000     -35.50080000     -72.78880000
