40
Properties=species:S:1:pos:R:3 #=T CELL(abcABC):=T 1.889726e+02=T 90.00000=T Traj:=T positionsangstrom=T Step:=T 0=T Bead:=T pbc="F F F"
C      -47.55180000     -32.56420000     -71.43250000
C      -46.93900000     -32.55690000     -72.68630000
C      -46.56450000     -33.71500000     -73.35790000
C      -46.64110000     -34.93280000     -72.73940000
C      -47.21690000     -34.96720000     -71.42670000
C      -47.69820000     -33.81840000     -70.79110000
H      -47.81310000     -31.68820000     -70.87140000
H      -46.24750000     -33.74610000     -74.39460000
H      -47.38020000     -35.97550000     -71.00700000
H      -48.15630000     -33.85880000     -69.83610000
C      -46.20440000     -36.20580000     -73.42580000
H      -46.14090000     -35.96960000     -74.52260000
H      -46.91610000     -37.00650000     -73.23080000
C      -46.91680000     -31.30210000     -73.47310000
H      -46.36880000     -31.44040000     -74.42410000
H      -47.90890000     -30.95500000     -73.68850000
S      -44.50590000     -36.76830000     -72.89500000
S      -46.12980000     -29.81240000     -72.59130000
C      -43.34900000     -35.31200000     -73.07270000
H      -42.64140000     -35.48850000     -73.95870000
H      -44.03180000     -34.56690000     -73.49940000
C      -44.29700000     -30.11460000     -72.62820000
H      -43.97100000     -29.19320000     -72.12990000
H      -43.99020000     -29.96020000     -73.72970000
C      -43.77520000     -31.41330000     -72.11130000
H      -43.98810000     -32.11670000     -72.94830000
H      -42.65440000     -31.34930000     -72.15560000
C      -42.71730000     -34.86020000     -71.75570000
H      -42.10360000     -33.94660000     -71.97770000
H      -42.02670000     -35.67920000     -71.44360000
C      -43.61210000     -34.52710000     -70.59230000
C      -43.89500000     -35.50960000     -69.65550000
C      -44.15350000     -33.24850000     -70.22520000
H      -43.48490000     -36.50870000     -69.53390000
C      -44.89240000     -33.33100000     -69.04730000
C      -44.33130000     -31.89340000     -70.79250000
C      -45.12000000     -31.09920000     -69.99790000
S      -44.93550000     -34.92470000     -68.34670000
S      -45.66000000     -31.87590000     -68.54720000
H      -45.49420000     -30.07140000     -70.13650000
