40
Properties=species:S:1:pos:R:3 #=T CELL(abcABC):=T 1.889726e+02=T 90.00000=T Traj:=T positionsangstrom=T Step:=T 0=T Bead:=T pbc="F F F"
C      -47.61620000     -32.53380000     -71.42550000
C      -47.19630000     -32.48540000     -72.74860000
C      -47.05570000     -33.67410000     -73.38770000
C      -47.13350000     -34.91220000     -72.72060000
C      -47.54420000     -34.89560000     -71.35990000
C      -47.79630000     -33.69320000     -70.77040000
H      -47.64000000     -31.61870000     -70.83620000
H      -46.79460000     -33.68890000     -74.41940000
H      -47.75760000     -35.80540000     -70.77450000
H      -48.16640000     -33.62800000     -69.75970000
C      -46.82450000     -36.14150000     -73.39500000
H      -46.87020000     -36.03840000     -74.47920000
H      -47.51230000     -36.94610000     -72.94030000
C      -46.87910000     -31.19550000     -73.53760000
H      -46.24800000     -31.47330000     -74.36130000
H      -47.77060000     -30.78150000     -73.95030000
S      -45.03630000     -36.71810000     -72.94520000
S      -46.03790000     -29.87250000     -72.51450000
C      -44.01270000     -35.14760000     -73.26410000
H      -43.45630000     -35.16270000     -74.22870000
H      -44.63170000     -34.25920000     -73.31220000
C      -44.25330000     -30.15710000     -72.70960000
H      -43.89220000     -29.27850000     -72.21930000
H      -43.97740000     -29.99360000     -73.79260000
C      -43.72580000     -31.51700000     -72.26460000
H      -43.85670000     -32.30680000     -73.02610000
H      -42.65860000     -31.42370000     -72.29860000
C      -42.98200000     -34.90540000     -72.09620000
H      -42.29460000     -34.01490000     -72.31520000
H      -42.30820000     -35.78340000     -72.04520000
C      -43.59110000     -34.62570000     -70.71450000
C      -43.59320000     -35.59350000     -69.71610000
C      -44.12150000     -33.35180000     -70.27350000
H      -43.25740000     -36.62550000     -69.87700000
C      -44.55020000     -33.40550000     -68.95720000
C      -44.20460000     -31.97600000     -70.85540000
C      -44.79100000     -31.11370000     -69.89650000
S      -44.20220000     -34.95070000     -68.21440000
S      -45.11860000     -31.87670000     -68.34180000
H      -45.04390000     -30.08360000     -69.93790000
