40
Properties=species:S:1:pos:R:3 #=T CELL(abcABC):=T 1.889726e+02=T 90.00000=T Traj:=T positionsangstrom=T Step:=T 0=T Bead:=T pbc="F F F"
C      -47.65490000     -32.56490000     -71.80240000
C      -46.96050000     -32.53300000     -73.00610000
C      -46.56150000     -33.72780000     -73.61750000
C      -46.76970000     -34.95620000     -72.97540000
C      -47.43810000     -34.99260000     -71.73460000
C      -47.83650000     -33.78600000     -71.14270000
H      -47.92010000     -31.59830000     -71.36680000
H      -46.13740000     -33.76540000     -74.59050000
H      -47.44490000     -35.85130000     -71.11720000
H      -48.33070000     -33.84220000     -70.20720000
C      -46.12340000     -36.16390000     -73.58410000
H      -46.09470000     -36.00070000     -74.61770000
H      -46.67580000     -37.10830000     -73.35330000
C      -46.74120000     -31.25630000     -73.79430000
H      -46.00930000     -31.40290000     -74.56870000
H      -47.64010000     -30.88800000     -74.21920000
S      -44.41320000     -36.55830000     -72.83210000
S      -46.11000000     -29.83520000     -72.68530000
C      -43.40310000     -35.04470000     -72.92850000
H      -42.61390000     -35.15570000     -73.72040000
H      -44.16710000     -34.33740000     -73.24610000
C      -44.33270000     -30.20720000     -72.50170000
H      -43.94060000     -29.46680000     -71.77390000
H      -43.87040000     -30.00800000     -73.49220000
C      -43.94470000     -31.59670000     -71.96420000
H      -44.29270000     -32.24720000     -72.82820000
H      -42.78890000     -31.52330000     -72.05550000
C      -42.70070000     -34.61240000     -71.66470000
H      -42.22520000     -33.67100000     -71.88710000
H      -42.02310000     -35.36030000     -71.33650000
C      -43.59810000     -34.50070000     -70.44710000
C      -43.77830000     -35.50240000     -69.51630000
C      -44.25250000     -33.31190000     -70.07560000
H      -43.67660000     -36.53260000     -69.75270000
C      -44.81300000     -33.42610000     -68.79340000
C      -44.49320000     -31.96960000     -70.64090000
C      -45.33210000     -31.17480000     -69.95150000
S      -44.67400000     -35.01080000     -68.12880000
S      -45.70590000     -32.01110000     -68.36070000
H      -45.66720000     -30.20220000     -70.15120000
