40
Properties=species:S:1:pos:R:3 #=T CELL(abcABC):=T 1.889726e+02=T 90.00000=T Traj:=T positionsangstrom=T Step:=T 0=T Bead:=T pbc="F F F"
C      -47.62000000     -32.52840000     -71.92010000
C      -47.00630000     -32.48220000     -73.20000000
C      -46.56440000     -33.68820000     -73.75200000
C      -46.70360000     -34.91670000     -73.06960000
C      -47.20670000     -34.92410000     -71.74930000
C      -47.63800000     -33.71990000     -71.19670000
H      -47.90520000     -31.57290000     -71.42960000
H      -46.04090000     -33.60300000     -74.72700000
H      -47.32290000     -35.84340000     -71.16760000
H      -48.08360000     -33.83610000     -70.16510000
C      -46.10530000     -36.16750000     -73.58680000
H      -45.84400000     -36.06290000     -74.66050000
H      -46.73120000     -37.03260000     -73.35020000
C      -46.72400000     -31.17070000     -73.92830000
H      -46.07120000     -31.33920000     -74.84200000
H      -47.67150000     -30.83460000     -74.36250000
S      -44.49440000     -36.51700000     -72.68340000
S      -46.12260000     -29.82590000     -72.93490000
C      -43.57210000     -34.97440000     -72.87150000
H      -42.89940000     -34.85630000     -73.73030000
H      -44.21150000     -34.13630000     -73.03760000
C      -44.39450000     -30.19190000     -72.47410000
H      -44.17560000     -29.41090000     -71.80000000
H      -43.71580000     -30.00050000     -73.34100000
C      -44.01440000     -31.55000000     -71.88500000
H      -44.35400000     -32.36060000     -72.45500000
H      -42.97760000     -31.70320000     -71.89440000
C      -42.68490000     -34.66110000     -71.61550000
H      -42.07220000     -33.76890000     -72.02400000
H      -42.06110000     -35.58420000     -71.49100000
C      -43.52450000     -34.44480000     -70.40500000
C      -43.60560000     -35.45050000     -69.49280000
C      -44.25310000     -33.29810000     -70.05420000
H      -43.23460000     -36.43120000     -69.60860000
C      -44.93350000     -33.55270000     -68.86590000
C      -44.51960000     -31.94220000     -70.47490000
C      -45.27890000     -31.20720000     -69.62420000
S      -44.69860000     -35.13160000     -68.17090000
S      -45.75150000     -32.12610000     -68.22590000
H      -45.51880000     -30.13400000     -69.64430000
