40
Properties=species:S:1:pos:R:3 #=T CELL(abcABC):=T 1.889726e+02=T 90.00000=T Traj:=T positionsangstrom=T Step:=T 0=T Bead:=T pbc="F F F"
C      -45.17930000     -36.50160000     -71.78960000
C      -45.52230000     -36.27860000     -70.45200000
C      -46.66520000     -35.57380000     -70.12370000
C      -47.45680000     -34.97900000     -71.09390000
C      -47.12310000     -35.15460000     -72.45920000
C      -46.01460000     -35.89220000     -72.77050000
H      -44.18570000     -36.97890000     -71.95040000
H      -46.90860000     -35.51270000     -69.06890000
H      -47.78800000     -34.63640000     -73.24450000
H      -45.68510000     -36.10340000     -73.84640000
C      -48.73740000     -34.26100000     -70.71750000
H      -48.99030000     -34.50350000     -69.69570000
H      -49.56750000     -34.61880000     -71.33810000
C      -44.66100000     -36.88540000     -69.42970000
H      -45.12420000     -37.63990000     -68.77460000
H      -43.90250000     -37.38830000     -70.04480000
S      -48.61120000     -32.40990000     -70.86320000
S      -43.92570000     -35.58250000     -68.37500000
C      -47.19840000     -32.24140000     -69.62840000
H      -47.69650000     -31.94660000     -68.68930000
H      -46.66180000     -33.15060000     -69.39080000
C      -42.93500000     -34.57400000     -69.58140000
H      -42.50030000     -35.16750000     -70.36660000
H      -41.98830000     -34.22340000     -69.13760000
C      -43.81030000     -33.43610000     -69.96990000
H      -44.82340000     -33.72110000     -69.99360000
H      -43.83160000     -32.60180000     -69.18990000
C      -46.18470000     -31.15530000     -69.95970000
H      -45.23460000     -31.24280000     -69.41080000
H      -46.54250000     -30.14570000     -69.88380000
C      -45.62530000     -31.17480000     -71.44260000
C      -46.07090000     -30.32010000     -72.40000000
C      -44.44860000     -31.84530000     -71.86210000
H      -46.99070000     -29.77020000     -72.42260000
C      -44.08690000     -31.54500000     -73.16320000
C      -43.53060000     -32.76860000     -71.25530000
C      -42.40860000     -32.99410000     -72.07120000
S      -45.19000000     -30.47640000     -73.95700000
S      -42.56430000     -32.16570000     -73.67610000
H      -41.54440000     -33.55800000     -71.90290000
