40
Properties=species:S:1:pos:R:3 #=T CELL(abcABC):=T 1.889726e+02=T 90.00000=T Traj:=T positionsangstrom=T Step:=T 0=T Bead:=T pbc="F F F"
C      -47.69490000     -32.59330000     -71.68040000
C      -46.88920000     -32.54610000     -72.83910000
C      -46.37930000     -33.70170000     -73.39820000
C      -46.58660000     -34.94960000     -72.75260000
C      -47.24890000     -34.96750000     -71.52310000
C      -47.87590000     -33.79610000     -71.01790000
H      -48.26510000     -31.73990000     -71.36520000
H      -45.88570000     -33.70790000     -74.32730000
H      -47.37970000     -35.97500000     -71.08320000
H      -48.43500000     -33.81780000     -70.15010000
C      -46.12240000     -36.21940000     -73.40240000
H      -46.12830000     -36.11780000     -74.50430000
H      -46.78430000     -37.07750000     -73.23540000
C      -46.79960000     -31.20090000     -73.52380000
H      -46.21620000     -31.34740000     -74.44220000
H      -47.88460000     -30.88370000     -73.84140000
S      -44.43640000     -36.77920000     -72.90240000
S      -46.15350000     -29.78190000     -72.59450000
C      -43.49060000     -35.19170000     -73.05150000
H      -42.84770000     -35.28440000     -73.87530000
H      -44.19420000     -34.36440000     -73.24520000
C      -44.26130000     -30.16800000     -72.56400000
H      -43.88170000     -29.41130000     -71.93240000
H      -43.80250000     -30.05890000     -73.49840000
C      -43.88050000     -31.52190000     -72.09520000
H      -44.18690000     -32.23040000     -72.83160000
H      -42.83940000     -31.58530000     -72.04650000
C      -42.84220000     -34.75600000     -71.78880000
H      -42.15170000     -33.92920000     -71.81990000
H      -42.00750000     -35.51580000     -71.60180000
C      -43.68580000     -34.54730000     -70.58400000
C      -43.71230000     -35.44560000     -69.56470000
C      -44.34490000     -33.31850000     -70.21010000
H      -43.09170000     -36.32150000     -69.45350000
C      -45.07510000     -33.42160000     -69.04090000
C      -44.42850000     -31.91400000     -70.71710000
C      -45.03010000     -31.07460000     -69.86220000
S      -44.77340000     -34.95050000     -68.23750000
S      -45.69550000     -31.88860000     -68.50290000
H      -45.18230000     -29.99990000     -69.96150000
