40
Properties=species:S:1:pos:R:3 #=T CELL(abcABC):=T 1.889726e+02=T 90.00000=T Traj:=T positionsangstrom=T Step:=T 0=T Bead:=T pbc="F F F"
C      -47.59970000     -32.46160000     -71.47430000
C      -47.05480000     -32.44450000     -72.74090000
C      -46.71800000     -33.64180000     -73.37560000
C      -46.80130000     -34.90760000     -72.65950000
C      -47.17870000     -34.87350000     -71.32050000
C      -47.64420000     -33.66440000     -70.78480000
H      -47.80870000     -31.48320000     -71.03330000
H      -46.51100000     -33.56270000     -74.46480000
H      -47.37270000     -35.66980000     -70.65270000
H      -47.94070000     -33.67230000     -69.71820000
C      -46.39520000     -36.18790000     -73.30270000
H      -46.57590000     -36.23840000     -74.44100000
H      -46.98100000     -37.07620000     -72.97200000
C      -46.96640000     -31.20650000     -73.52650000
H      -46.54420000     -31.39900000     -74.49020000
H      -48.00100000     -30.80380000     -73.72530000
S      -44.65880000     -36.70320000     -72.89180000
S      -46.03630000     -29.78730000     -72.68280000
C      -43.68190000     -35.20910000     -73.13750000
H      -42.97990000     -35.34570000     -73.94630000
H      -44.36230000     -34.35820000     -73.41640000
C      -44.25480000     -30.23520000     -72.82160000
H      -43.72670000     -29.35880000     -72.27140000
H      -43.95580000     -30.21370000     -73.88770000
C      -43.85480000     -31.59090000     -72.19200000
H      -44.18280000     -32.39950000     -72.80140000
H      -42.75680000     -31.69580000     -72.21220000
C      -42.86260000     -34.80640000     -71.90950000
H      -42.17860000     -33.96620000     -72.17600000
H      -42.07830000     -35.63030000     -71.75920000
C      -43.68770000     -34.58480000     -70.70130000
C      -43.90100000     -35.56640000     -69.75030000
C      -44.32110000     -33.33430000     -70.28370000
H      -43.51760000     -36.59590000     -69.90350000
C      -44.81810000     -33.45280000     -68.97510000
C      -44.39040000     -31.99110000     -70.82520000
C      -44.79430000     -31.11580000     -69.82500000
S      -44.88090000     -35.07080000     -68.38380000
S      -45.23440000     -31.85630000     -68.26510000
H      -44.72390000     -30.05070000     -69.89940000
