40
Properties=species:S:1:pos:R:3 #=T CELL(abcABC):=T 1.889726e+02=T 90.00000=T Traj:=T positionsangstrom=T Step:=T 0=T Bead:=T pbc="F F F"
C      -47.89050000     -32.84610000     -71.93870000
C      -47.02250000     -32.69830000     -73.04520000
C      -46.22920000     -33.71510000     -73.53160000
C      -46.32610000     -35.01610000     -72.98490000
C      -47.08530000     -35.20260000     -71.81830000
C      -47.85150000     -34.08780000     -71.32690000
H      -48.27620000     -32.03290000     -71.39800000
H      -45.52230000     -33.52080000     -74.37050000
H      -46.99810000     -36.14260000     -71.22440000
H      -48.41240000     -34.25470000     -70.40660000
C      -45.54560000     -36.13490000     -73.66930000
H      -45.10530000     -35.74770000     -74.59790000
H      -46.15350000     -37.08420000     -73.80390000
C      -46.79310000     -31.37050000     -73.70380000
H      -46.27550000     -31.44300000     -74.60210000
H      -47.71850000     -30.99900000     -74.00970000
S      -44.05980000     -36.64000000     -72.66960000
S      -46.33060000     -29.85350000     -72.67630000
C      -43.10120000     -35.08130000     -72.89560000
H      -42.27350000     -35.26530000     -73.56980000
H      -43.72600000     -34.35890000     -73.38220000
C      -44.45740000     -30.06340000     -72.53220000
H      -44.16610000     -29.16790000     -71.94240000
H      -43.95610000     -29.90010000     -73.45870000
C      -43.97090000     -31.37540000     -71.94680000
H      -44.09510000     -32.08490000     -72.73710000
H      -42.86140000     -31.29120000     -71.79550000
C      -42.53870000     -34.47640000     -71.57710000
H      -42.25650000     -33.48980000     -71.90400000
H      -41.76870000     -35.22940000     -71.24990000
C      -43.62230000     -34.38100000     -70.45570000
C      -43.73840000     -35.36760000     -69.44870000
C      -44.39020000     -33.18640000     -70.08710000
H      -43.36590000     -36.42960000     -69.53110000
C      -45.12700000     -33.39680000     -68.89230000
C      -44.60380000     -31.80770000     -70.63150000
C      -45.48540000     -31.11730000     -69.84920000
S      -44.86730000     -34.92610000     -68.15700000
S      -46.08880000     -32.00820000     -68.43850000
H      -45.86510000     -30.15590000     -70.08010000
