40
Properties=species:S:1:pos:R:3 #=T CELL(abcABC):=T 1.889726e+02=T 90.00000=T Traj:=T positionsangstrom=T Step:=T 0=T Bead:=T pbc="F F F"
C      -47.81950000     -32.73260000     -72.07080000
C      -46.99110000     -32.58380000     -73.14400000
C      -46.28770000     -33.71800000     -73.68010000
C      -46.49230000     -34.98820000     -73.04420000
C      -47.45650000     -35.13520000     -71.97260000
C      -48.08560000     -34.01530000     -71.43210000
H      -48.35110000     -31.87610000     -71.69510000
H      -45.73590000     -33.70550000     -74.62930000
H      -47.60310000     -36.21190000     -71.57700000
H      -48.75170000     -34.10720000     -70.57410000
C      -45.69410000     -36.21530000     -73.55150000
H      -45.64100000     -36.11140000     -74.66520000
H      -46.23430000     -37.10920000     -73.39890000
C      -46.88950000     -31.25000000     -73.69380000
H      -46.01340000     -31.31050000     -74.47270000
H      -47.94390000     -30.94910000     -74.14460000
S      -44.07550000     -36.44090000     -72.75100000
S      -46.32260000     -29.92540000     -72.50380000
C      -43.12720000     -34.85070000     -72.77350000
H      -42.53070000     -34.88250000     -73.66110000
H      -43.85750000     -33.97980000     -72.94380000
C      -44.46270000     -30.15490000     -72.41840000
H      -44.22440000     -29.32070000     -71.65340000
H      -43.96810000     -29.92820000     -73.34550000
C      -43.99060000     -31.52400000     -71.97120000
H      -44.38720000     -32.24940000     -72.65980000
H      -42.88670000     -31.60690000     -72.03170000
C      -42.40860000     -34.51350000     -71.49190000
H      -41.86570000     -33.55980000     -71.49560000
H      -41.61640000     -35.14130000     -71.09840000
C      -43.44100000     -34.35070000     -70.31660000
C      -43.64230000     -35.43970000     -69.44170000
C      -44.29570000     -33.23580000     -70.09320000
H      -43.06630000     -36.33990000     -69.37010000
C      -45.05950000     -33.46200000     -68.91460000
C      -44.49730000     -31.88790000     -70.57050000
C      -45.38140000     -31.16760000     -69.81570000
S      -44.79700000     -35.06570000     -68.22740000
S      -46.01000000     -32.03510000     -68.45850000
H      -45.71630000     -30.14780000     -69.93220000
