40
Properties=species:S:1:pos:R:3 #=T CELL(abcABC):=T 1.889726e+02=T 90.00000=T Traj:=T positionsangstrom=T Step:=T 0=T Bead:=T pbc="F F F"
C      -47.60880000     -32.54510000     -72.09750000
C      -46.76080000     -32.45090000     -73.21080000
C      -46.28010000     -33.65060000     -73.72480000
C      -46.53760000     -34.90190000     -73.08620000
C      -47.26460000     -34.96610000     -71.87750000
C      -47.84270000     -33.75830000     -71.40540000
H      -48.09950000     -31.65770000     -71.74110000
H      -45.75380000     -33.59160000     -74.66010000
H      -47.45690000     -35.91380000     -71.38790000
H      -48.54350000     -33.76230000     -70.61420000
C      -45.96380000     -36.11360000     -73.73240000
H      -45.76520000     -35.97810000     -74.82420000
H      -46.71400000     -36.93110000     -73.63760000
C      -46.51610000     -31.14140000     -73.94990000
H      -45.65990000     -31.33600000     -74.58130000
H      -47.24130000     -30.87860000     -74.71280000
S      -44.41400000     -36.62050000     -72.81620000
S      -46.27730000     -29.72800000     -72.80170000
C      -43.38820000     -35.07570000     -72.96640000
H      -42.63000000     -35.35310000     -73.74290000
H      -44.05940000     -34.26870000     -73.37050000
C      -44.50590000     -30.01230000     -72.21480000
H      -44.23230000     -29.23600000     -71.44500000
H      -43.91520000     -29.78470000     -73.06670000
C      -44.21500000     -31.41510000     -71.78960000
H      -44.52040000     -32.06640000     -72.62260000
H      -43.10670000     -31.41990000     -71.70780000
C      -42.74870000     -34.58900000     -71.67080000
H      -42.37210000     -33.60080000     -71.81720000
H      -41.96750000     -35.37170000     -71.53500000
C      -43.62630000     -34.46430000     -70.50590000
C      -43.65240000     -35.47980000     -69.56920000
C      -44.37280000     -33.27530000     -69.99090000
H      -43.09130000     -36.45860000     -69.64650000
C      -44.86970000     -33.54440000     -68.70650000
C      -44.71170000     -31.95840000     -70.49210000
C      -45.54630000     -31.29280000     -69.58720000
S      -44.52270000     -35.17460000     -68.10190000
S      -45.81620000     -32.18000000     -68.10220000
H      -46.19280000     -30.44600000     -69.85060000
