40
Properties=species:S:1:pos:R:3 #=T CELL(abcABC):=T 1.889726e+02=T 90.00000=T Traj:=T positionsangstrom=T Step:=T 0=T Bead:=T pbc="F F F"
C      -47.72660000     -32.90030000     -71.97900000
C      -46.89110000     -32.94770000     -73.10800000
C      -46.28140000     -34.16400000     -73.38870000
C      -46.52780000     -35.30460000     -72.56910000
C      -47.26640000     -35.19320000     -71.41480000
C      -47.85670000     -33.95900000     -71.07880000
H      -48.38060000     -31.97250000     -71.82820000
H      -45.76040000     -34.21990000     -74.31040000
H      -47.39680000     -36.08180000     -70.79190000
H      -48.48210000     -33.86370000     -70.20200000
C      -45.81790000     -36.50990000     -73.07150000
H      -45.84750000     -36.56670000     -74.19850000
H      -46.29930000     -37.40420000     -72.75280000
C      -46.71180000     -31.75110000     -74.04310000
H      -45.98130000     -32.00700000     -74.88300000
H      -47.60080000     -31.56340000     -74.65840000
S      -43.99380000     -36.58220000     -72.45380000
S      -46.23790000     -30.18180000     -73.18880000
C      -43.12730000     -35.02100000     -72.73830000
H      -42.31330000     -35.17740000     -73.42350000
H      -43.78590000     -34.30950000     -73.29520000
C      -44.43610000     -30.17280000     -72.89530000
H      -44.18700000     -29.28170000     -72.33430000
H      -43.94570000     -30.18510000     -73.87040000
C      -43.90740000     -31.40160000     -72.11640000
H      -44.03770000     -32.27050000     -72.79500000
H      -42.83300000     -31.28890000     -72.00220000
C      -42.66270000     -34.48970000     -71.43230000
H      -42.16360000     -33.47090000     -71.60840000
H      -41.82200000     -35.19790000     -71.21180000
C      -43.64370000     -34.26370000     -70.34520000
C      -43.93990000     -35.27310000     -69.51210000
C      -44.26290000     -32.95590000     -70.01760000
H      -43.45320000     -36.27440000     -69.45310000
C      -45.08360000     -33.06820000     -68.90730000
C      -44.54930000     -31.69880000     -70.78170000
C      -45.43850000     -30.92780000     -70.09960000
S      -45.00260000     -34.71290000     -68.11310000
S      -45.93600000     -31.61720000     -68.50260000
H      -45.91970000     -30.00260000     -70.32430000
