40
Properties=species:S:1:pos:R:3 #=T CELL(abcABC):=T 1.889726e+02=T 90.00000=T Traj:=T positionsangstrom=T Step:=T 0=T Bead:=T pbc="F F F"
C      -47.44260000     -32.76560000     -71.94160000
C      -46.86710000     -32.84450000     -73.23450000
C      -46.40170000     -34.10080000     -73.62450000
C      -46.39160000     -35.19450000     -72.75950000
C      -47.10730000     -35.08920000     -71.52810000
C      -47.63520000     -33.86090000     -71.10290000
H      -47.73190000     -31.82950000     -71.70350000
H      -45.95430000     -34.29800000     -74.58070000
H      -47.27150000     -35.88850000     -70.88250000
H      -48.15260000     -33.66890000     -70.18280000
C      -45.74870000     -36.54500000     -73.15680000
H      -45.35960000     -36.44400000     -74.19570000
H      -46.45130000     -37.35560000     -73.06740000
C      -46.71760000     -31.67310000     -74.10790000
H      -46.11170000     -31.92110000     -75.02000000
H      -47.73610000     -31.46220000     -74.59670000
S      -44.25220000     -36.86790000     -71.99240000
S      -46.18220000     -30.01480000     -73.47440000
C      -43.17720000     -35.51980000     -72.46500000
H      -42.36090000     -35.82080000     -73.09820000
H      -43.75360000     -34.83230000     -73.10160000
C      -44.45650000     -30.23670000     -72.93960000
H      -44.36780000     -29.39910000     -72.31390000
H      -43.86810000     -30.14440000     -73.89790000
C      -44.01110000     -31.55770000     -72.24710000
H      -44.13250000     -32.42070000     -72.89040000
H      -42.95920000     -31.42670000     -72.16980000
C      -42.64390000     -34.63230000     -71.30940000
H      -42.37060000     -33.75940000     -71.88970000
H      -41.64720000     -34.90980000     -70.85230000
C      -43.64250000     -34.26560000     -70.23670000
C      -43.82280000     -35.21600000     -69.21040000
C      -44.42660000     -33.04060000     -70.12640000
H      -43.28570000     -36.15440000     -69.11650000
C      -45.03640000     -32.98940000     -68.88080000
C      -44.68220000     -31.84720000     -70.91500000
C      -45.48730000     -30.98520000     -70.19060000
S      -44.86140000     -34.45370000     -67.97670000
S      -46.06480000     -31.60370000     -68.63030000
H      -45.79580000     -29.99570000     -70.55650000
