40
Properties=species:S:1:pos:R:3 #=T CELL(abcABC):=T 1.889726e+02=T 90.00000=T Traj:=T positionsangstrom=T Step:=T 0=T Bead:=T pbc="F F F"
C      -42.03210000     -32.02050000     -72.64290000
C      -43.25820000     -31.87260000     -71.94440000
C      -43.28840000     -32.33410000     -70.60960000
C      -42.24310000     -32.98970000     -69.98880000
C      -41.10660000     -33.26610000     -70.78100000
C      -40.98100000     -32.73120000     -72.00640000
H      -41.95950000     -31.75060000     -73.73210000
H      -44.20480000     -32.22020000     -69.95830000
H      -40.32430000     -33.85970000     -70.46150000
H      -40.14500000     -33.03310000     -72.60680000
C      -42.30340000     -33.53110000     -68.55510000
H      -42.93890000     -32.94260000     -67.90870000
H      -41.38270000     -33.66180000     -68.13010000
C      -44.47620000     -31.21260000     -72.54460000
H      -45.29780000     -31.53470000     -71.94010000
H      -44.39420000     -30.05720000     -72.54030000
S      -42.96330000     -35.26890000     -68.48790000
S      -44.62150000     -31.63760000     -74.35410000
C      -44.75460000     -34.88530000     -68.58990000
H      -45.22850000     -35.18010000     -67.66680000
H      -44.72450000     -33.76530000     -68.72930000
C      -44.74720000     -33.50350000     -74.42800000
H      -43.76230000     -33.94080000     -74.63250000
H      -45.24370000     -33.74740000     -75.41600000
C      -45.33880000     -34.12340000     -73.15170000
H      -45.19240000     -35.23760000     -73.14780000
H      -44.58150000     -33.82040000     -72.39360000
C      -45.44530000     -35.42310000     -69.86160000
H      -45.63740000     -36.52950000     -69.79890000
H      -44.76480000     -35.30130000     -70.67870000
C      -46.79870000     -34.72190000     -70.17260000
C      -47.84300000     -34.73360000     -69.24580000
C      -47.21270000     -33.94160000     -71.36140000
H      -47.79370000     -35.13020000     -68.25760000
C      -48.52310000     -33.39070000     -71.26740000
C      -46.67640000     -33.63010000     -72.69090000
C      -47.50250000     -32.86350000     -73.42480000
S      -49.32000000     -33.88920000     -69.77570000
S      -49.09150000     -32.51280000     -72.65240000
H      -47.32160000     -32.46820000     -74.38840000
