40
Properties=species:S:1:pos:R:3 #=T CELL(abcABC):=T 1.889726e+02=T 90.00000=T Traj:=T positionsangstrom=T Step:=T 0=T Bead:=T pbc="F F F"
C      -47.51650000     -36.60110000     -71.49480000
C      -47.26970000     -35.84730000     -72.69460000
C      -47.85440000     -34.58080000     -72.81310000
C      -48.69780000     -34.01770000     -71.87070000
C      -48.95770000     -34.85320000     -70.73560000
C      -48.30000000     -36.05300000     -70.50080000
H      -47.10370000     -37.64180000     -71.46940000
H      -47.69400000     -33.98970000     -73.69480000
H      -49.57480000     -34.35790000     -69.92060000
H      -48.72550000     -36.57180000     -69.58830000
C      -49.35390000     -32.69080000     -72.02830000
H      -50.00890000     -32.52920000     -71.17860000
H      -49.90760000     -32.65370000     -73.00920000
C      -46.31540000     -36.35080000     -73.75480000
H      -45.81400000     -37.27690000     -73.39990000
H      -46.89490000     -36.71650000     -74.66060000
S      -48.14610000     -31.31630000     -72.38860000
S      -45.13880000     -35.06790000     -74.15120000
C      -46.89910000     -31.45350000     -71.00410000
H      -47.00910000     -30.60330000     -70.43900000
H      -47.10620000     -32.27420000     -70.35910000
C      -44.30490000     -34.67620000     -72.57160000
H      -43.86670000     -35.60860000     -72.27070000
H      -45.02340000     -34.26010000     -71.75810000
C      -43.24400000     -33.60400000     -72.80630000
H      -42.49940000     -33.95050000     -73.52870000
H      -43.63990000     -32.72670000     -73.34180000
C      -45.48710000     -31.44620000     -71.59690000
H      -45.41440000     -30.52610000     -72.18090000
H      -45.34810000     -32.24800000     -72.32460000
C      -44.47100000     -31.58140000     -70.47220000
C      -44.60720000     -30.95440000     -69.22740000
C      -43.30630000     -32.39290000     -70.48500000
H      -45.41920000     -30.24780000     -68.99390000
C      -42.60320000     -32.43830000     -69.25880000
C      -42.65860000     -33.25850000     -71.43370000
C      -41.49190000     -33.79260000     -70.99070000
S      -43.40060000     -31.44150000     -68.14300000
S      -41.10440000     -33.31350000     -69.30800000
H      -40.81090000     -34.44970000     -71.50040000
