40
Properties=species:S:1:pos:R:3 #=T CELL(abcABC):=T 1.889726e+02=T 90.00000=T Traj:=T positionsangstrom=T Step:=T 0=T Bead:=T pbc="F F F"
C      -47.48990000     -32.76300000     -71.98300000
C      -46.81390000     -32.82210000     -73.20530000
C      -46.25860000     -34.03970000     -73.60410000
C      -46.36120000     -35.16020000     -72.85800000
C      -46.93520000     -35.05440000     -71.59750000
C      -47.53870000     -33.90140000     -71.15640000
H      -48.06210000     -31.92130000     -71.65370000
H      -45.80700000     -33.92820000     -74.61250000
H      -46.80440000     -35.94840000     -70.99070000
H      -47.97530000     -33.95780000     -70.15180000
C      -45.77900000     -36.48380000     -73.16760000
H      -45.44910000     -36.61380000     -74.18510000
H      -46.49770000     -37.35770000     -73.10170000
C      -46.66300000     -31.63830000     -74.13320000
H      -45.86810000     -31.81370000     -74.81850000
H      -47.58550000     -31.48340000     -74.71420000
S      -44.40950000     -36.85940000     -72.02960000
S      -46.29700000     -30.08650000     -73.19130000
C      -43.26120000     -35.47920000     -72.61950000
H      -42.40100000     -36.03170000     -73.05530000
H      -43.67190000     -34.87330000     -73.40670000
C      -44.53360000     -30.32800000     -72.87630000
H      -44.12010000     -29.49930000     -72.26080000
H      -43.90910000     -30.19270000     -73.75650000
C      -44.04850000     -31.62090000     -72.21210000
H      -44.25070000     -32.47160000     -72.92480000
H      -42.91110000     -31.64900000     -72.16160000
C      -42.68860000     -34.58870000     -71.47120000
H      -42.23430000     -33.65410000     -71.90530000
H      -41.89060000     -35.27230000     -71.05920000
C      -43.67770000     -34.27740000     -70.30660000
C      -43.78300000     -35.15820000     -69.22620000
C      -44.35180000     -33.05590000     -70.12170000
H      -43.46420000     -36.17810000     -69.13210000
C      -45.03980000     -33.00440000     -68.90890000
C      -44.61420000     -31.86330000     -70.87420000
C      -45.42010000     -30.95760000     -70.16950000
S      -44.87650000     -34.48450000     -68.01280000
S      -45.96390000     -31.53650000     -68.63470000
H      -45.73120000     -30.02840000     -70.63190000
