40
Properties=species:S:1:pos:R:3 #=T CELL(abcABC):=T 1.889726e+02=T 90.00000=T Traj:=T positionsangstrom=T Step:=T 0=T Bead:=T pbc="F F F"
C      -47.59790000     -36.39890000     -71.50650000
C      -47.23910000     -35.65010000     -72.55160000
C      -47.86010000     -34.37440000     -72.73810000
C      -48.79630000     -33.89660000     -71.80180000
C      -49.03060000     -34.64620000     -70.65540000
C      -48.56080000     -35.94490000     -70.56230000
H      -47.14360000     -37.35970000     -71.23390000
H      -47.66940000     -33.80450000     -73.67780000
H      -49.63200000     -34.19450000     -69.92680000
H      -48.70190000     -36.54330000     -69.61880000
C      -49.36760000     -32.52890000     -72.04800000
H      -49.99590000     -32.16020000     -71.21420000
H      -50.04900000     -32.60750000     -72.90480000
C      -46.36340000     -36.33250000     -73.63530000
H      -45.92980000     -37.20050000     -73.03210000
H      -46.93350000     -36.77160000     -74.48870000
S      -48.17830000     -31.20310000     -72.47910000
S      -44.98630000     -35.43480000     -74.32740000
C      -47.05410000     -31.26780000     -71.00250000
H      -47.11000000     -30.40930000     -70.34310000
H      -47.48920000     -32.05970000     -70.39880000
C      -44.13970000     -34.83250000     -72.73040000
H      -43.52670000     -35.81920000     -72.41260000
H      -44.88380000     -34.60840000     -72.00190000
C      -43.17600000     -33.63190000     -72.86430000
H      -42.35100000     -33.99730000     -73.54490000
H      -43.66250000     -32.75170000     -73.35770000
C      -45.61530000     -31.59160000     -71.44670000
H      -45.21550000     -30.98000000     -72.23870000
H      -45.71720000     -32.56050000     -71.96380000
C      -44.60840000     -31.74060000     -70.32050000
C      -44.70120000     -31.06680000     -69.11670000
C      -43.36190000     -32.48590000     -70.42850000
H      -45.57130000     -30.56040000     -68.75350000
C      -42.52850000     -32.46000000     -69.29110000
C      -42.65560000     -33.31610000     -71.45690000
C      -41.46410000     -33.77220000     -71.00640000
S      -43.34200000     -31.47360000     -68.09070000
S      -40.97390000     -33.26720000     -69.33800000
H      -40.80130000     -34.42440000     -71.60610000
