40
Properties=species:S:1:pos:R:3 #=T CELL(abcABC):=T 1.889726e+02=T 90.00000=T Traj:=T positionsangstrom=T Step:=T 0=T Bead:=T pbc="F F F"
C      -46.32240000     -35.38820000     -70.09190000
C      -44.99840000     -35.09880000     -69.70640000
C      -44.65000000     -33.96790000     -69.01250000
C      -45.70420000     -33.05730000     -68.70320000
C      -46.97440000     -33.29160000     -69.16020000
C      -47.28290000     -34.39890000     -69.91280000
H      -46.64510000     -36.31920000     -70.62060000
H      -43.64280000     -33.81350000     -68.67400000
H      -47.71320000     -32.52200000     -68.89940000
H      -48.29120000     -34.61850000     -70.26760000
C      -45.23110000     -31.77000000     -68.13070000
H      -44.19850000     -31.84050000     -67.84980000
H      -45.82480000     -31.46100000     -67.21440000
C      -43.92700000     -36.06420000     -70.15350000
H      -43.94940000     -36.96660000     -69.62810000
H      -44.15010000     -36.53030000     -71.08830000
S      -45.42550000     -30.53260000     -69.43730000
S      -42.23260000     -35.24970000     -70.26280000
C      -44.02560000     -30.88390000     -70.56290000
H      -43.15930000     -30.15870000     -70.34770000
H      -43.72120000     -31.88910000     -70.38630000
C      -42.24000000     -35.05790000     -72.18750000
H      -42.51190000     -36.03870000     -72.47820000
H      -41.19000000     -34.79900000     -72.32310000
C      -43.00960000     -33.80390000     -72.68830000
H      -42.92000000     -33.05530000     -71.90460000
H      -42.42650000     -33.36110000     -73.50750000
C      -44.41290000     -30.86990000     -72.04420000
H      -43.60720000     -31.31820000     -72.63660000
H      -44.46510000     -29.83480000     -72.42970000
C      -45.65780000     -31.68750000     -72.31700000
C      -46.91860000     -31.15820000     -72.37000000
C      -45.56100000     -33.03910000     -72.83340000
H      -47.27840000     -30.21500000     -71.96980000
C      -46.87370000     -33.42320000     -73.27460000
C      -44.50730000     -34.02050000     -73.01330000
C      -45.00720000     -35.14670000     -73.64980000
S      -48.13560000     -32.27210000     -73.04690000
S      -46.75340000     -35.01010000     -74.00420000
H      -44.39810000     -35.84820000     -74.20230000
