40
Properties=species:S:1:pos:R:3 #=T CELL(abcABC):=T 1.889726e+02=T 90.00000=T Traj:=T positionsangstrom=T Step:=T 0=T Bead:=T pbc="F F F"
C      -47.83660000     -32.77180000     -71.87150000
C      -46.83370000     -32.83640000     -72.88810000
C      -46.14050000     -34.07810000     -73.07840000
C      -46.35500000     -35.14310000     -72.12400000
C      -47.41810000     -35.00460000     -71.28010000
C      -48.18040000     -33.83810000     -71.10000000
H      -48.33650000     -31.83740000     -71.82980000
H      -45.22290000     -34.24500000     -73.69580000
H      -47.58300000     -35.80280000     -70.56840000
H      -49.15430000     -33.78110000     -70.53210000
C      -45.69550000     -36.44990000     -72.15210000
H      -46.22530000     -37.17460000     -72.72700000
H      -45.35150000     -36.84850000     -71.19350000
C      -46.68150000     -31.79870000     -73.86170000
H      -46.00600000     -32.17270000     -74.56330000
H      -47.54270000     -31.47730000     -74.38300000
S      -44.04710000     -36.46680000     -73.15160000
S      -45.94540000     -30.20580000     -73.32450000
C      -42.96240000     -35.14020000     -72.54710000
H      -42.00600000     -35.34040000     -72.99520000
H      -43.44140000     -34.21840000     -72.89860000
C      -44.03770000     -30.48440000     -73.00140000
H      -43.75370000     -29.62200000     -72.48560000
H      -43.59170000     -30.52520000     -73.99370000
C      -43.69070000     -31.74860000     -72.25130000
H      -43.99480000     -32.56300000     -72.88830000
H      -42.58950000     -31.75300000     -72.07600000
C      -42.69020000     -35.07080000     -71.02370000
H      -41.86680000     -34.39390000     -70.92920000
H      -42.49860000     -36.06030000     -70.67690000
C      -43.81720000     -34.50830000     -70.10000000
C      -44.35460000     -35.29750000     -69.11880000
C      -44.27170000     -33.13780000     -70.09570000
H      -43.98650000     -36.30090000     -68.90650000
C      -45.24990000     -33.03120000     -69.04160000
C      -44.35650000     -31.90150000     -70.91290000
C      -45.20000000     -30.95750000     -70.37220000
S      -45.35640000     -34.40560000     -68.01070000
S      -46.00490000     -31.47480000     -68.95750000
H      -45.49360000     -29.98470000     -70.78140000
