40
Properties=species:S:1:pos:R:3 #=T CELL(abcABC):=T 1.889726e+02=T 90.00000=T Traj:=T positionsangstrom=T Step:=T 0=T Bead:=T pbc="F F F"
C      -47.36140000     -36.75990000     -72.29060000
C      -47.16150000     -35.89890000     -73.38130000
C      -47.82230000     -34.67090000     -73.39410000
C      -48.53590000     -34.21230000     -72.26580000
C      -48.62480000     -35.00560000     -71.10680000
C      -48.07440000     -36.33710000     -71.17160000
H      -46.89430000     -37.77520000     -72.22180000
H      -47.67150000     -33.93830000     -74.12100000
H      -49.15760000     -34.61780000     -70.19010000
H      -48.11510000     -36.93490000     -70.28290000
C      -49.24470000     -32.88620000     -72.28530000
H      -49.93800000     -32.88310000     -71.40770000
H      -49.91690000     -32.95000000     -73.07970000
C      -46.02410000     -36.21940000     -74.36490000
H      -45.43630000     -37.18560000     -74.10700000
H      -46.33630000     -36.16590000     -75.37540000
S      -47.93090000     -31.51770000     -72.43640000
S      -44.84900000     -34.86090000     -74.35050000
C      -46.96470000     -31.72870000     -70.84350000
H      -47.53820000     -31.16130000     -70.08970000
H      -46.94840000     -32.83130000     -70.59850000
C      -44.66500000     -34.43810000     -72.60580000
H      -44.46000000     -35.39290000     -72.06570000
H      -45.57560000     -34.10910000     -72.10590000
C      -43.58000000     -33.35390000     -72.49830000
H      -42.78490000     -33.70530000     -73.18120000
H      -43.85990000     -32.38430000     -72.89710000
C      -45.61180000     -31.16680000     -71.05700000
H      -45.70180000     -30.03070000     -71.32570000
H      -45.17650000     -31.65810000     -71.92030000
C      -44.58560000     -31.38350000     -70.01470000
C      -44.53550000     -30.62790000     -68.87530000
C      -43.54040000     -32.36710000     -70.01900000
H      -45.18450000     -29.81040000     -68.49920000
C      -42.74700000     -32.41130000     -68.87320000
C      -43.11750000     -33.28490000     -71.04710000
C      -42.07360000     -34.03060000     -70.63560000
S      -43.26110000     -31.20520000     -67.74890000
S      -41.38770000     -33.49350000     -69.05130000
H      -41.55370000     -34.79390000     -71.19390000
