40
Properties=species:S:1:pos:R:3 #=T CELL(abcABC):=T 1.889726e+02=T 90.00000=T Traj:=T positionsangstrom=T Step:=T 0=T Bead:=T pbc="F F F"
C      -43.63180000     -30.93770000     -69.96630000
C      -44.91470000     -30.46310000     -69.80280000
C      -45.78420000     -30.48670000     -70.86260000
C      -45.37110000     -30.90250000     -72.11240000
C      -44.04900000     -31.23850000     -72.34240000
C      -43.15000000     -31.25390000     -71.26680000
H      -43.00140000     -30.99530000     -69.09510000
H      -46.81020000     -30.23790000     -70.68220000
H      -43.66210000     -31.54010000     -73.34410000
H      -42.12910000     -31.60240000     -71.35940000
C      -46.30340000     -31.02850000     -73.29010000
H      -46.29270000     -30.22510000     -74.05060000
H      -47.36220000     -31.08550000     -73.00130000
C      -45.45200000     -30.30300000     -68.39740000
H      -44.67950000     -30.23580000     -67.61320000
H      -45.85020000     -29.30420000     -68.33920000
S      -45.86870000     -32.54060000     -74.34860000
S      -46.85580000     -31.47960000     -67.88910000
C      -47.37130000     -33.55930000     -74.30480000
H      -48.28250000     -32.91180000     -74.47770000
H      -47.41220000     -34.22240000     -75.10200000
C      -46.02430000     -33.07710000     -68.20320000
H      -46.38920000     -33.78200000     -67.41140000
H      -44.96050000     -32.88710000     -67.93410000
C      -46.41940000     -33.64660000     -69.55900000
H      -47.36290000     -34.22570000     -69.53290000
H      -46.67060000     -32.90420000     -70.21690000
C      -47.47290000     -34.32240000     -72.96810000
H      -48.41370000     -34.85630000     -72.91250000
H      -47.40290000     -33.58890000     -72.14560000
C      -46.27250000     -35.18090000     -72.66230000
C      -45.87410000     -36.09210000     -73.62230000
C      -45.37300000     -35.13810000     -71.48860000
H      -46.29400000     -36.31620000     -74.55980000
C      -44.27380000     -35.99130000     -71.66560000
C      -45.37010000     -34.60190000     -70.14460000
C      -44.26100000     -34.97500000     -69.42790000
S      -44.35470000     -36.90390000     -73.19450000
S      -43.10430000     -35.95170000     -70.34800000
H      -43.87950000     -34.81340000     -68.43650000
