40
Properties=species:S:1:pos:R:3 #=T CELL(abcABC):=T 1.889726e+02=T 90.00000=T Traj:=T positionsangstrom=T Step:=T 0=T Bead:=T pbc="F F F"
C      -47.94700000     -33.02520000     -73.14650000
C      -46.67390000     -32.95980000     -73.76090000
C      -45.88590000     -34.14870000     -73.78580000
C      -46.34500000     -35.38040000     -73.24370000
C      -47.64700000     -35.38940000     -72.64920000
C      -48.39350000     -34.21800000     -72.56950000
H      -48.66910000     -32.25090000     -72.99430000
H      -44.95750000     -34.20150000     -74.35380000
H      -47.92710000     -36.37500000     -72.23090000
H      -49.38950000     -34.20290000     -72.21010000
C      -45.50320000     -36.60870000     -73.28060000
H      -44.97210000     -36.83340000     -74.18680000
H      -46.06400000     -37.45650000     -72.95960000
C      -46.25890000     -31.72160000     -74.45640000
H      -45.48600000     -31.94810000     -75.15870000
H      -47.14980000     -31.31800000     -75.01790000
S      -44.31900000     -36.41310000     -71.87600000
S      -45.84320000     -30.36340000     -73.28290000
C      -43.04480000     -35.12560000     -72.12990000
H      -42.16210000     -35.42650000     -72.72580000
H      -43.45730000     -34.28350000     -72.70990000
C      -44.06360000     -30.48690000     -72.71880000
H      -43.85260000     -29.50020000     -72.36350000
H      -43.43930000     -30.53670000     -73.65580000
C      -43.73700000     -31.64490000     -71.77590000
H      -44.01740000     -32.49920000     -72.34570000
H      -42.59420000     -31.56770000     -71.69500000
C      -42.52240000     -34.59490000     -70.78020000
H      -41.99040000     -33.64140000     -70.98240000
H      -41.90730000     -35.33050000     -70.35870000
C      -43.62620000     -34.24920000     -69.73580000
C      -44.05590000     -35.11910000     -68.74370000
C      -44.35560000     -33.00100000     -69.72120000
H      -43.78410000     -36.13190000     -68.61020000
C      -45.24320000     -32.91190000     -68.64960000
C      -44.46190000     -31.74460000     -70.53630000
C      -45.43560000     -30.89700000     -70.03610000
S      -45.30220000     -34.38230000     -67.72370000
S      -46.14470000     -31.40440000     -68.51080000
H      -45.51910000     -29.93160000     -70.42820000
