40
Properties=species:S:1:pos:R:3 #=T CELL(abcABC):=T 1.889726e+02=T 90.00000=T Traj:=T positionsangstrom=T Step:=T 0=T Bead:=T pbc="F F F"
C      -43.62440000     -30.66360000     -70.09340000
C      -44.98690000     -30.42910000     -69.91770000
C      -45.77840000     -30.32470000     -71.06830000
C      -45.27510000     -30.88060000     -72.29470000
C      -43.90150000     -31.18270000     -72.40500000
C      -43.04270000     -31.07820000     -71.32360000
H      -43.03770000     -30.57230000     -69.09770000
H      -46.81650000     -30.00150000     -70.91900000
H      -43.52910000     -31.37000000     -73.42850000
H      -42.04280000     -31.40140000     -71.58260000
C      -46.13240000     -31.03460000     -73.52230000
H      -45.73860000     -30.34070000     -74.31280000
H      -47.06970000     -30.56310000     -73.28840000
C      -45.59550000     -30.08410000     -68.58710000
H      -44.84520000     -30.13260000     -67.72060000
H      -46.06040000     -29.09930000     -68.61010000
S      -46.19000000     -32.69330000     -74.21390000
S      -46.90410000     -31.37060000     -68.18890000
C      -47.75660000     -33.54120000     -73.64760000
H      -48.45790000     -32.77240000     -73.19690000
H      -48.25240000     -33.99810000     -74.51130000
C      -45.97660000     -32.94510000     -68.42140000
H      -46.27140000     -33.74230000     -67.70060000
H      -44.84500000     -32.63870000     -68.28930000
C      -46.25780000     -33.50260000     -69.79710000
H      -47.30220000     -33.90940000     -69.83160000
H      -46.31410000     -32.83880000     -70.62170000
C      -47.55980000     -34.60690000     -72.58100000
H      -48.35300000     -35.36500000     -72.53880000
H      -47.85820000     -34.22040000     -71.55100000
C      -46.21870000     -35.30090000     -72.50870000
C      -45.79390000     -36.16380000     -73.47620000
C      -45.31770000     -35.28780000     -71.38790000
H      -46.31790000     -36.46140000     -74.34580000
C      -44.19750000     -36.10940000     -71.59160000
C      -45.20370000     -34.51990000     -70.16140000
C      -44.05790000     -34.86410000     -69.46880000
S      -44.29760000     -37.03250000     -73.05760000
S      -43.05310000     -36.08780000     -70.26200000
H      -43.66660000     -34.58890000     -68.52230000
