40
Properties=species:S:1:pos:R:3 #=T CELL(abcABC):=T 1.889726e+02=T 90.00000=T Traj:=T positionsangstrom=T Step:=T 0=T Bead:=T pbc="F F F"
C      -43.49860000     -31.11040000     -69.95120000
C      -44.89010000     -30.98100000     -69.61040000
C      -45.85720000     -30.80030000     -70.63230000
C      -45.57430000     -30.69530000     -71.97410000
C      -44.22500000     -30.88380000     -72.34060000
C      -43.23960000     -31.04840000     -71.31340000
H      -42.65030000     -31.14310000     -69.30220000
H      -46.89050000     -30.71880000     -70.28010000
H      -43.99180000     -30.80170000     -73.37600000
H      -42.19300000     -31.03050000     -71.60280000
C      -46.65560000     -30.48050000     -73.02930000
H      -46.62580000     -29.47130000     -73.53250000
H      -47.64480000     -30.38700000     -72.55780000
C      -45.11820000     -30.87360000     -68.09860000
H      -44.15240000     -30.99190000     -67.61840000
H      -45.57280000     -29.89100000     -67.73080000
S      -46.68720000     -31.74540000     -74.34360000
S      -46.39000000     -32.08740000     -67.44990000
C      -47.86160000     -33.07560000     -73.82410000
H      -48.78360000     -32.57300000     -73.54260000
H      -47.97690000     -33.61820000     -74.77840000
C      -45.66840000     -33.66230000     -68.11420000
H      -45.73220000     -34.36320000     -67.32320000
H      -44.58020000     -33.45200000     -68.23010000
C      -46.29410000     -34.25100000     -69.41900000
H      -47.17830000     -34.82020000     -69.22740000
H      -46.51870000     -33.31820000     -70.00050000
C      -47.33680000     -33.94690000     -72.66800000
H      -48.05820000     -34.72970000     -72.42740000
H      -47.29270000     -33.40900000     -71.70790000
C      -45.98890000     -34.63560000     -72.83960000
C      -45.38300000     -35.05270000     -73.98790000
C      -45.27170000     -35.12680000     -71.59500000
H      -45.61090000     -34.89040000     -75.02680000
C      -44.17560000     -35.91610000     -72.00640000
C      -45.33360000     -35.11310000     -70.15160000
C      -44.45600000     -35.97340000     -69.53920000
S      -43.98910000     -36.14040000     -73.75270000
S      -43.35580000     -36.74520000     -70.71540000
H      -44.25030000     -36.03340000     -68.46000000
