40
Properties=species:S:1:pos:R:3 #=T CELL(abcABC):=T 1.889726e+02=T 90.00000=T Traj:=T positionsangstrom=T Step:=T 0=T Bead:=T pbc="F F F"
C      -43.56550000     -31.27840000     -70.00320000
C      -44.96550000     -31.04770000     -69.69510000
C      -45.88240000     -30.79440000     -70.74460000
C      -45.51560000     -30.79400000     -72.04210000
C      -44.10040000     -31.00650000     -72.35600000
C      -43.18750000     -31.25990000     -71.34970000
H      -42.83740000     -31.55030000     -69.19630000
H      -46.94890000     -30.49740000     -70.52040000
H      -43.81710000     -31.05050000     -73.38550000
H      -42.22280000     -31.59560000     -71.65650000
C      -46.59120000     -30.34480000     -73.14370000
H      -46.23040000     -29.47930000     -73.60410000
H      -47.54670000     -30.33240000     -72.56560000
C      -45.38380000     -30.92570000     -68.18070000
H      -44.41160000     -30.75740000     -67.67860000
H      -45.99410000     -29.98230000     -68.07500000
S      -46.59940000     -31.69290000     -74.43530000
S      -46.41920000     -32.22350000     -67.41280000
C      -47.73920000     -32.98000000     -73.73530000
H      -48.61610000     -32.53580000     -73.53030000
H      -47.94230000     -33.84460000     -74.44730000
C      -45.80180000     -33.84870000     -67.96970000
H      -46.32090000     -34.63730000     -67.35830000
H      -44.71720000     -33.94700000     -67.75810000
C      -46.08950000     -34.13910000     -69.45550000
H      -47.18870000     -34.39380000     -69.51860000
H      -46.13920000     -33.32750000     -70.11700000
C      -47.18540000     -33.55920000     -72.39080000
H      -48.02680000     -33.91020000     -71.77830000
H      -46.80070000     -32.68790000     -71.76110000
C      -46.09270000     -34.57320000     -72.60170000
C      -45.54260000     -34.87030000     -73.83650000
C      -45.30760000     -35.26650000     -71.53490000
H      -45.84670000     -34.48850000     -74.81530000
C      -44.24510000     -36.05670000     -72.03750000
C      -45.21580000     -35.15620000     -70.10310000
C      -44.17980000     -35.86890000     -69.58040000
S      -44.18880000     -36.00710000     -73.76820000
S      -43.30710000     -36.76380000     -70.78470000
H      -43.97510000     -35.90740000     -68.50660000
