40
Properties=species:S:1:pos:R:3 #=T CELL(abcABC):=T 1.889726e+02=T 90.00000=T Traj:=T positionsangstrom=T Step:=T 0=T Bead:=T pbc="F F F"
C      -46.94210000     -35.04340000     -74.25660000
C      -46.48630000     -33.73050000     -74.28230000
C      -47.12650000     -32.79200000     -73.49220000
C      -48.36270000     -33.16140000     -72.83360000
C      -48.86460000     -34.45420000     -72.83500000
C      -48.03130000     -35.41040000     -73.44590000
H      -46.34260000     -35.85710000     -74.81580000
H      -46.74200000     -31.77890000     -73.50550000
H      -49.80820000     -34.66740000     -72.35370000
H      -48.45950000     -36.42350000     -73.44520000
C      -49.18680000     -32.06230000     -72.08760000
H      -49.99110000     -32.66110000     -71.59700000
H      -49.62970000     -31.45660000     -72.85750000
C      -45.50260000     -33.37190000     -75.27390000
H      -44.88660000     -34.19260000     -75.64300000
H      -45.83500000     -32.83230000     -76.14910000
S      -48.27540000     -30.93250000     -71.02520000
S      -44.20060000     -32.18050000     -74.48200000
C      -47.29070000     -32.00370000     -69.76690000
H      -47.48010000     -31.54160000     -68.76790000
H      -47.82460000     -33.01730000     -69.77470000
C      -43.80000000     -33.16460000     -72.98180000
H      -43.31020000     -34.06150000     -73.34350000
H      -44.77110000     -33.48120000     -72.64430000
C      -42.98280000     -32.53430000     -71.79640000
H      -42.05580000     -32.02640000     -72.11910000
H      -43.65040000     -31.68860000     -71.47940000
C      -45.74620000     -32.11490000     -70.20150000
H      -45.36290000     -31.07970000     -70.28280000
H      -45.82210000     -32.54970000     -71.20850000
C      -44.97740000     -33.01300000     -69.28720000
C      -45.35050000     -33.56920000     -68.08050000
C      -43.71480000     -33.59090000     -69.66110000
H      -46.30090000     -33.35720000     -67.55610000
C      -43.22620000     -34.53890000     -68.72420000
C      -42.81220000     -33.60800000     -70.77860000
C      -41.68250000     -34.35010000     -70.67590000
S      -44.27030000     -34.77510000     -67.43090000
S      -41.59720000     -35.14570000     -69.11710000
H      -40.90300000     -34.29250000     -71.39190000
