40
Properties=species:S:1:pos:R:3 #=T CELL(abcABC):=T 1.889726e+02=T 90.00000=T Traj:=T positionsangstrom=T Step:=T 0=T Bead:=T pbc="F F F"
C      -49.23440000     -32.64050000     -72.75660000
C      -48.03800000     -33.03170000     -73.40140000
C      -47.48870000     -34.28040000     -73.13760000
C      -48.12530000     -35.15300000     -72.22000000
C      -49.37380000     -34.77140000     -71.72420000
C      -49.96710000     -33.49980000     -71.94940000
H      -49.49520000     -31.60970000     -72.95850000
H      -46.67180000     -34.74220000     -73.70930000
H      -49.79910000     -35.51460000     -70.97930000
H      -50.97210000     -33.24600000     -71.61910000
C      -47.41450000     -36.43110000     -71.76610000
H      -46.47330000     -36.58390000     -72.30850000
H      -47.98760000     -37.34330000     -71.86890000
C      -47.36490000     -32.03290000     -74.39820000
H      -46.97020000     -32.57320000     -75.24510000
H      -48.07700000     -31.33260000     -74.66970000
S      -47.17370000     -36.28150000     -69.93630000
S      -45.85710000     -31.20340000     -73.66490000
C      -45.73540000     -35.15330000     -69.80910000
H      -46.12830000     -34.15190000     -69.86420000
H      -45.28310000     -35.33480000     -68.82970000
C      -46.27290000     -31.00250000     -71.82420000
H      -47.36760000     -30.84200000     -71.69670000
H      -45.82430000     -30.05530000     -71.60760000
C      -45.72950000     -32.04770000     -70.95750000
H      -46.24560000     -32.02300000     -70.00270000
H      -45.93390000     -32.99110000     -71.40310000
C      -44.58680000     -35.45910000     -70.82660000
H      -44.88210000     -35.29370000     -71.86880000
H      -44.22270000     -36.46400000     -70.66560000
C      -43.39370000     -34.59780000     -70.37160000
C      -42.15640000     -35.08300000     -70.09720000
C      -43.36640000     -33.07190000     -70.41260000
H      -41.71170000     -36.09840000     -69.85230000
C      -42.05400000     -32.62990000     -70.20710000
C      -44.26060000     -32.01230000     -70.66560000
C      -43.58500000     -30.84460000     -70.46270000
S      -40.85520000     -33.90440000     -69.91310000
S      -41.91000000     -30.89870000     -70.12660000
H      -43.94650000     -29.84350000     -70.73110000
