40
Properties=species:S:1:pos:R:3 #=T CELL(abcABC):=T 1.889726e+02=T 90.00000=T Traj:=T positionsangstrom=T Step:=T 0=T Bead:=T pbc="F F F"
C      -48.90090000     -32.08290000     -70.09700000
C      -47.95090000     -31.13420000     -70.49180000
C      -46.76100000     -31.20920000     -69.72000000
C      -46.57910000     -32.09450000     -68.64460000
C      -47.66690000     -32.96970000     -68.24580000
C      -48.77650000     -33.02510000     -69.09140000
H      -49.82390000     -32.12650000     -70.69650000
H      -45.87590000     -30.68670000     -70.00920000
H      -47.67730000     -33.44430000     -67.24360000
H      -49.59100000     -33.75190000     -68.83180000
C      -45.32220000     -32.02650000     -67.89020000
H      -45.45650000     -31.65710000     -66.88730000
H      -44.72870000     -31.28980000     -68.36020000
C      -48.15930000     -30.23460000     -71.64870000
H      -48.94390000     -30.68950000     -72.28200000
H      -48.49190000     -29.23980000     -71.41510000
S      -44.47510000     -33.68660000     -67.53590000
S      -46.50260000     -29.98380000     -72.50820000
C      -44.44530000     -34.48720000     -69.23620000
H      -44.31200000     -35.58860000     -69.05630000
H      -45.40610000     -34.42740000     -69.71810000
C      -46.19410000     -31.56070000     -73.32330000
H      -45.26520000     -31.46490000     -73.77250000
H      -46.91520000     -31.89080000     -74.04160000
C      -45.97600000     -32.79310000     -72.25380000
H      -45.35850000     -32.42750000     -71.36900000
H      -46.87990000     -33.29440000     -71.89750000
C      -43.46800000     -33.79820000     -70.16270000
H      -42.43930000     -33.63030000     -69.58370000
H      -43.79520000     -32.82050000     -70.45350000
C      -43.12360000     -34.61430000     -71.43120000
C      -42.15900000     -35.64400000     -71.41530000
C      -43.95900000     -34.55570000     -72.56910000
H      -41.52890000     -35.93190000     -70.63670000
C      -43.61050000     -35.56630000     -73.46150000
C      -45.10220000     -33.81320000     -73.03800000
C      -45.52990000     -34.22990000     -74.30280000
S      -42.28300000     -36.56440000     -72.93530000
S      -44.49380000     -35.57490000     -74.98150000
H      -46.38180000     -33.82690000     -74.92110000
