40
Properties=species:S:1:pos:R:3 #=T CELL(abcABC):=T 1.889726e+02=T 90.00000=T Traj:=T positionsangstrom=T Step:=T 0=T Bead:=T pbc="F F F"
C      -43.88200000     -31.76590000     -69.90870000
C      -44.97560000     -30.98570000     -69.66280000
C      -45.71620000     -30.47160000     -70.75060000
C      -45.29300000     -30.81900000     -72.09390000
C      -44.24420000     -31.68330000     -72.31530000
C      -43.57430000     -32.17230000     -71.20510000
H      -43.34940000     -32.19880000     -69.15600000
H      -46.57490000     -29.79350000     -70.59570000
H      -44.00250000     -32.11780000     -73.27020000
H      -42.67770000     -32.77650000     -71.35030000
C      -46.19120000     -30.28150000     -73.18930000
H      -45.67450000     -29.45630000     -73.80310000
H      -47.04030000     -29.76040000     -72.80250000
C      -45.45140000     -30.58700000     -68.27170000
H      -44.55720000     -30.40220000     -67.57100000
H      -46.09830000     -29.68420000     -68.30960000
S      -46.66080000     -31.60520000     -74.33850000
S      -46.42810000     -32.09090000     -67.60280000
C      -47.74220000     -32.79170000     -73.43180000
H      -48.68490000     -32.26540000     -73.09240000
H      -47.97350000     -33.55760000     -74.11390000
C      -45.49380000     -33.63180000     -68.14460000
H      -45.30060000     -34.21100000     -67.18480000
H      -44.49240000     -33.22120000     -68.45330000
C      -46.15060000     -34.31720000     -69.29720000
H      -46.84340000     -35.04500000     -68.87150000
H      -46.65470000     -33.59580000     -69.92870000
C      -47.17930000     -33.48690000     -72.19410000
H      -48.02250000     -33.99780000     -71.67870000
H      -46.84870000     -32.79510000     -71.47080000
C      -46.03850000     -34.49450000     -72.54230000
C      -45.70840000     -34.96800000     -73.79930000
C      -45.21180000     -35.09250000     -71.50300000
H      -46.27460000     -34.53250000     -74.64330000
C      -44.29100000     -35.96230000     -72.06620000
C      -45.16500000     -35.10950000     -70.07980000
C      -44.08200000     -35.79630000     -69.64640000
S      -44.33720000     -36.05810000     -73.86500000
S      -43.18530000     -36.68380000     -70.88440000
H      -43.82630000     -35.73420000     -68.60720000
