40
Properties=species:S:1:pos:R:3 #=T CELL(abcABC):=T 1.889726e+02=T 90.00000=T Traj:=T positionsangstrom=T Step:=T 0=T Bead:=T pbc="F F F"
C      -48.97270000     -32.31530000     -70.16620000
C      -48.09650000     -31.23950000     -70.44610000
C      -47.00670000     -31.09720000     -69.59380000
C      -46.66100000     -32.15120000     -68.70680000
C      -47.55500000     -33.17060000     -68.42810000
C      -48.70090000     -33.27430000     -69.18620000
H      -49.82890000     -32.49630000     -70.77920000
H      -46.45790000     -30.21790000     -69.65580000
H      -47.19350000     -33.89620000     -67.75200000
H      -49.38950000     -34.11920000     -68.95900000
C      -45.34880000     -32.05620000     -67.92050000
H      -45.55430000     -31.59580000     -66.95600000
H      -44.58070000     -31.40480000     -68.49310000
C      -48.22290000     -30.28770000     -71.69770000
H      -48.94430000     -30.79460000     -72.33520000
H      -48.60330000     -29.32780000     -71.36280000
S      -44.60190000     -33.64950000     -67.52720000
S      -46.57640000     -29.93390000     -72.45610000
C      -44.38250000     -34.35030000     -69.25320000
H      -43.98250000     -35.39400000     -69.14350000
H      -45.39630000     -34.49010000     -69.57120000
C      -45.93020000     -31.46940000     -73.29360000
H      -45.00520000     -31.27610000     -73.75470000
H      -46.61580000     -31.62730000     -74.21610000
C      -45.83680000     -32.76920000     -72.32050000
H      -45.35030000     -32.56100000     -71.36980000
H      -46.80910000     -33.02590000     -71.97690000
C      -43.36630000     -33.65050000     -70.19200000
H      -42.48090000     -33.59530000     -69.60930000
H      -43.65040000     -32.61890000     -70.23160000
C      -43.15210000     -34.45730000     -71.42220000
C      -42.12710000     -35.39900000     -71.48420000
C      -43.97650000     -34.57350000     -72.61350000
H      -41.36430000     -35.57680000     -70.73580000
C      -43.55140000     -35.63430000     -73.45390000
C      -45.22230000     -33.94940000     -73.03940000
C      -45.56150000     -34.50800000     -74.24300000
S      -42.10380000     -36.32740000     -72.91460000
S      -44.51580000     -35.70700000     -74.87960000
H      -46.43590000     -34.15330000     -74.90010000
