40
Properties=species:S:1:pos:R:3 #=T CELL(abcABC):=T 1.889726e+02=T 90.00000=T Traj:=T positionsangstrom=T Step:=T 0=T Bead:=T pbc="F F F"
C      -43.09830000     -32.46780000     -70.53410000
C      -44.14330000     -31.75340000     -69.93400000
C      -44.98100000     -31.03180000     -70.80910000
C      -44.79250000     -31.18180000     -72.20300000
C      -43.74370000     -31.87110000     -72.75090000
C      -42.79920000     -32.48140000     -71.90200000
H      -42.37740000     -32.97870000     -69.95200000
H      -45.81410000     -30.35300000     -70.55630000
H      -43.68610000     -31.93710000     -73.87980000
H      -41.98770000     -33.11320000     -72.29540000
C      -45.83610000     -30.51240000     -73.23590000
H      -45.32530000     -29.63440000     -73.70230000
H      -46.72200000     -30.16450000     -72.65120000
C      -44.33510000     -31.62280000     -68.41330000
H      -43.73230000     -32.37760000     -67.84560000
H      -43.92720000     -30.70520000     -68.00470000
S      -46.35680000     -31.68480000     -74.55160000
S      -46.12640000     -31.47450000     -67.78590000
C      -47.68210000     -32.66840000     -73.92150000
H      -48.58670000     -32.09560000     -73.69970000
H      -47.93760000     -33.43720000     -74.67100000
C      -46.82860000     -33.20810000     -67.87040000
H      -47.82470000     -33.26990000     -67.43630000
H      -46.21800000     -33.82350000     -67.13670000
C      -46.93700000     -33.76980000     -69.34270000
H      -47.80230000     -34.40990000     -69.43890000
H      -47.04020000     -32.94070000     -70.03230000
C      -47.55240000     -33.53220000     -72.57690000
H      -48.53370000     -34.00860000     -72.45910000
H      -47.59470000     -32.81240000     -71.77040000
C      -46.38140000     -34.48340000     -72.51160000
C      -45.96680000     -35.14140000     -73.63260000
C      -45.67530000     -34.86110000     -71.32760000
H      -46.47300000     -35.09570000     -74.62000000
C      -44.65580000     -35.79420000     -71.64010000
C      -45.71450000     -34.58860000     -69.93040000
C      -44.75040000     -35.25160000     -69.24310000
S      -44.62080000     -36.27100000     -73.34520000
S      -43.66110000     -36.23020000     -70.27120000
H      -44.58360000     -35.22650000     -68.20980000
