40
Properties=species:S:1:pos:R:3 #=T CELL(abcABC):=T 1.889726e+02=T 90.00000=T Traj:=T positionsangstrom=T Step:=T 0=T Bead:=T pbc="F F F"
C      -48.89360000     -31.79490000     -69.88380000
C      -47.79420000     -31.03080000     -70.31350000
C      -46.65780000     -31.03500000     -69.53010000
C      -46.54540000     -31.87880000     -68.42570000
C      -47.60470000     -32.72660000     -68.09930000
C      -48.81200000     -32.62330000     -68.76300000
H      -49.76940000     -31.91400000     -70.52320000
H      -45.80650000     -30.36770000     -69.79330000
H      -47.50440000     -33.41960000     -67.26430000
H      -49.67870000     -33.18040000     -68.38530000
C      -45.24950000     -32.01690000     -67.64120000
H      -45.35350000     -31.61830000     -66.62000000
H      -44.46670000     -31.40500000     -68.14640000
C      -47.94990000     -30.01860000     -71.44550000
H      -48.90900000     -30.09250000     -71.85070000
H      -47.89530000     -29.05830000     -70.84930000
S      -44.50970000     -33.74210000     -67.53320000
S      -46.58280000     -29.99540000     -72.66020000
C      -44.77710000     -34.51080000     -69.22930000
H      -44.74500000     -35.56740000     -68.93830000
H      -45.81090000     -34.34390000     -69.65810000
C      -46.37580000     -31.65970000     -73.28310000
H      -45.99810000     -31.59950000     -74.37340000
H      -47.29600000     -32.12710000     -73.41020000
C      -45.38970000     -32.48930000     -72.50820000
H      -44.58350000     -31.94190000     -72.07370000
H      -45.88720000     -32.78000000     -71.59010000
C      -43.59450000     -34.06740000     -70.13440000
H      -42.72970000     -34.02340000     -69.50600000
H      -43.75290000     -33.03670000     -70.51570000
C      -43.35600000     -34.96620000     -71.39410000
C      -42.47420000     -36.01950000     -71.41640000
C      -43.91000000     -34.68630000     -72.72890000
H      -42.01170000     -36.63860000     -70.59210000
C      -43.58470000     -35.64790000     -73.63880000
C      -44.92530000     -33.74590000     -73.23290000
C      -45.27890000     -34.10340000     -74.53030000
S      -42.45010000     -36.84110000     -72.97410000
S      -44.42660000     -35.58540000     -75.16320000
H      -45.92930000     -33.54870000     -75.15740000
