40
Properties=species:S:1:pos:R:3 #=T CELL(abcABC):=T 1.889726e+02=T 90.00000=T Traj:=T positionsangstrom=T Step:=T 0=T Bead:=T pbc="F F F"
C      -49.18030000     -32.70640000     -70.40090000
C      -48.35990000     -31.63750000     -70.54740000
C      -47.30370000     -31.38900000     -69.62230000
C      -47.01460000     -32.30450000     -68.63000000
C      -47.79840000     -33.42760000     -68.55420000
C      -48.87550000     -33.60110000     -69.41840000
H      -49.99010000     -32.73960000     -71.12420000
H      -46.63770000     -30.59540000     -69.76190000
H      -47.48870000     -34.24850000     -67.87790000
H      -49.53780000     -34.44860000     -69.25480000
C      -45.95160000     -32.18500000     -67.66060000
H      -46.33260000     -32.20930000     -66.63720000
H      -45.39360000     -31.23940000     -67.64890000
C      -48.53920000     -30.58210000     -71.69440000
H      -49.26210000     -30.95600000     -72.37250000
H      -48.73960000     -29.58280000     -71.25540000
S      -44.86390000     -33.65180000     -67.67200000
S      -46.93390000     -30.37140000     -72.72390000
C      -44.53740000     -34.01660000     -69.40030000
H      -44.25610000     -35.15270000     -69.46530000
H      -45.47250000     -34.03520000     -69.99260000
C      -46.40490000     -32.00390000     -73.48570000
H      -45.66950000     -31.78140000     -74.24890000
H      -47.22930000     -32.46790000     -74.14840000
C      -45.93350000     -32.93170000     -72.38900000
H      -45.44800000     -32.41840000     -71.58790000
H      -46.73820000     -33.28080000     -71.81450000
C      -43.52250000     -33.20730000     -70.11770000
H      -42.64980000     -32.95600000     -69.43850000
H      -43.98000000     -32.29570000     -70.55290000
C      -42.91540000     -33.92300000     -71.36420000
C      -41.72210000     -34.48690000     -71.30260000
C      -43.70980000     -34.26600000     -72.50820000
H      -40.85930000     -34.36220000     -70.58390000
C      -43.03330000     -35.23470000     -73.23520000
C      -45.04140000     -34.02380000     -73.02110000
C      -45.25780000     -34.65530000     -74.18240000
S      -41.41010000     -35.60510000     -72.70970000
S      -43.92310000     -35.86640000     -74.62110000
H      -46.13450000     -34.58740000     -74.77620000
