40
Properties=species:S:1:pos:R:3 #=T CELL(abcABC):=T 1.889726e+02=T 90.00000=T Traj:=T positionsangstrom=T Step:=T 0=T Bead:=T pbc="F F F"
C      -42.95100000     -32.65600000     -70.49120000
C      -44.02550000     -31.84450000     -70.08710000
C      -44.83330000     -31.23920000     -71.02930000
C      -44.66600000     -31.43560000     -72.43480000
C      -43.55780000     -32.25400000     -72.83330000
C      -42.62730000     -32.73660000     -71.84190000
H      -42.34890000     -33.02810000     -69.67230000
H      -45.79120000     -30.76900000     -70.68640000
H      -43.38070000     -32.50440000     -73.85810000
H      -41.65710000     -33.23110000     -72.15230000
C      -45.66150000     -30.77280000     -73.42320000
H      -45.13450000     -29.92750000     -73.85950000
H      -46.48870000     -30.34160000     -72.82910000
C      -44.33830000     -31.70230000     -68.64530000
H      -44.12680000     -32.56400000     -68.08940000
H      -43.71130000     -30.86000000     -68.20650000
S      -46.26130000     -31.86660000     -74.77440000
S      -46.03220000     -31.23660000     -68.13740000
C      -47.65360000     -32.76370000     -74.02150000
H      -48.47880000     -32.08830000     -73.82330000
H      -47.86920000     -33.63930000     -74.71550000
C      -47.02720000     -32.76300000     -68.04690000
H      -47.98370000     -32.50070000     -67.60410000
H      -46.53330000     -33.46350000     -67.31660000
C      -47.24230000     -33.46170000     -69.39750000
H      -48.21840000     -33.97520000     -69.41620000
H      -47.24720000     -32.72000000     -70.14880000
C      -47.41550000     -33.39330000     -72.63260000
H      -48.38580000     -33.76230000     -72.36070000
H      -47.24710000     -32.63200000     -71.90720000
C      -46.22220000     -34.35660000     -72.49890000
C      -45.50750000     -34.92240000     -73.55270000
C      -45.78430000     -34.77810000     -71.20940000
H      -45.78040000     -34.88560000     -74.59630000
C      -44.78420000     -35.73830000     -71.33440000
C      -46.13570000     -34.54340000     -69.86570000
C      -45.45630000     -35.35610000     -68.98430000
S      -44.33990000     -36.08440000     -72.99480000
S      -44.13540000     -36.28700000     -69.81610000
H      -45.47490000     -35.49120000     -67.91080000
