40
Properties=species:S:1:pos:R:3 #=T CELL(abcABC):=T 1.889726e+02=T 90.00000=T Traj:=T positionsangstrom=T Step:=T 0=T Bead:=T pbc="F F F"
C      -43.41170000     -32.87450000     -70.09120000
C      -44.52050000     -32.02690000     -69.88690000
C      -45.03670000     -31.20030000     -70.86250000
C      -44.45900000     -31.31880000     -72.20610000
C      -43.43090000     -32.19610000     -72.38560000
C      -42.88120000     -32.98530000     -71.33720000
H      -43.11910000     -33.43750000     -69.14800000
H      -45.61750000     -30.33160000     -70.52000000
H      -43.07490000     -32.30090000     -73.35000000
H      -42.08250000     -33.75800000     -71.42160000
C      -44.95410000     -30.58970000     -73.45850000
H      -44.24810000     -29.90090000     -73.94310000
H      -45.93250000     -30.21230000     -73.37950000
C      -44.79140000     -31.91170000     -68.38640000
H      -44.48000000     -32.88820000     -67.90620000
H      -44.02380000     -31.18200000     -68.02570000
S      -45.17990000     -31.82680000     -74.83160000
S      -46.47160000     -31.32570000     -67.93330000
C      -46.81540000     -32.67040000     -74.48550000
H      -47.66280000     -32.03120000     -74.86820000
H      -46.80870000     -33.51580000     -75.27160000
C      -47.57300000     -32.79220000     -68.42070000
H      -48.56280000     -32.37520000     -68.38570000
H      -47.57840000     -33.53080000     -67.59660000
C      -47.40430000     -33.26110000     -69.86220000
H      -48.32380000     -33.76630000     -70.10700000
H      -47.32000000     -32.39200000     -70.50630000
C      -47.09580000     -33.23530000     -73.15620000
H      -48.09570000     -33.67330000     -73.15470000
H      -46.98230000     -32.40960000     -72.42820000
C      -46.11290000     -34.33400000     -72.75050000
C      -45.37720000     -35.09660000     -73.60430000
C      -45.81080000     -34.71780000     -71.41340000
H      -45.63840000     -35.13310000     -74.68480000
C      -44.83130000     -35.70660000     -71.35640000
C      -46.29100000     -34.28470000     -70.15090000
C      -45.74450000     -34.97200000     -69.13890000
S      -44.30900000     -36.35000000     -72.90850000
S      -44.57490000     -36.19400000     -69.70240000
H      -45.95880000     -34.95730000     -68.06300000
