40
Properties=species:S:1:pos:R:3 #=T CELL(abcABC):=T 1.889726e+02=T 90.00000=T Traj:=T positionsangstrom=T Step:=T 0=T Bead:=T pbc="F F F"
C      -42.90330000     -32.64910000     -70.02160000
C      -44.09800000     -31.91670000     -69.81510000
C      -44.86230000     -31.44200000     -70.94070000
C      -44.38020000     -31.52990000     -72.22330000
C      -43.26980000     -32.38830000     -72.40980000
C      -42.55420000     -32.95410000     -71.37280000
H      -42.43150000     -33.07220000     -69.19230000
H      -45.73600000     -30.83890000     -70.70400000
H      -42.89140000     -32.49260000     -73.45140000
H      -41.85140000     -33.67080000     -71.62110000
C      -44.99500000     -30.80730000     -73.39010000
H      -44.30760000     -30.19660000     -73.89590000
H      -45.78040000     -30.03830000     -73.02560000
C      -44.60350000     -31.68030000     -68.41940000
H      -44.38200000     -32.59250000     -67.78080000
H      -44.06820000     -30.91880000     -67.85390000
S      -45.62370000     -31.79150000     -74.86370000
S      -46.39290000     -31.13160000     -68.29170000
C      -47.26470000     -32.62980000     -74.46200000
H      -48.08440000     -31.83050000     -74.68340000
H      -47.21100000     -33.49740000     -75.14930000
C      -47.27210000     -32.73230000     -68.30500000
H      -48.25900000     -32.39840000     -67.86270000
H      -46.79670000     -33.34580000     -67.53010000
C      -47.50020000     -33.52490000     -69.57780000
H      -48.44850000     -34.00720000     -69.38560000
H      -47.78120000     -32.92140000     -70.41500000
C      -47.31180000     -33.23250000     -73.05660000
H      -48.24830000     -33.65820000     -72.78950000
H      -47.17770000     -32.51240000     -72.25900000
C      -46.23580000     -34.33540000     -72.73070000
C      -45.46950000     -35.02950000     -73.66210000
C      -45.95860000     -34.76200000     -71.31210000
H      -45.34950000     -34.83030000     -74.68500000
C      -45.00640000     -35.75100000     -71.29820000
C      -46.37370000     -34.43170000     -69.96900000
C      -45.71640000     -35.16790000     -69.01020000
S      -44.32880000     -36.16320000     -72.93780000
S      -44.50150000     -36.30870000     -69.72790000
H      -45.92620000     -35.14870000     -67.94990000
