40
Properties=species:S:1:pos:R:3 #=T CELL(abcABC):=T 1.889726e+02=T 90.00000=T Traj:=T positionsangstrom=T Step:=T 0=T Bead:=T pbc="F F F"
C      -41.75850000     -32.20870000     -72.78210000
C      -42.96480000     -32.02960000     -72.08640000
C      -43.08030000     -32.58940000     -70.77040000
C      -42.11150000     -33.39530000     -70.19490000
C      -40.87700000     -33.48690000     -70.89560000
C      -40.71730000     -32.89540000     -72.15840000
H      -41.64260000     -31.69180000     -73.80460000
H      -43.94170000     -32.27880000     -70.13450000
H      -40.14400000     -34.17380000     -70.59120000
H      -39.74890000     -32.92210000     -72.53910000
C      -42.20460000     -34.00820000     -68.86180000
H      -42.74480000     -33.32480000     -68.16270000
H      -41.14890000     -34.20430000     -68.55320000
C      -44.03280000     -31.05910000     -72.67610000
H      -44.92270000     -30.84070000     -72.04020000
H      -43.62100000     -30.05540000     -72.79960000
S      -43.15460000     -35.61340000     -68.72760000
S      -44.54470000     -31.47580000     -74.40840000
C      -44.90670000     -35.28910000     -68.56560000
H      -45.20080000     -36.08350000     -67.88920000
H      -45.09810000     -34.38970000     -67.91370000
C      -44.95840000     -33.29780000     -74.36700000
H      -44.01670000     -33.87300000     -74.61200000
H      -45.70780000     -33.44080000     -75.16520000
C      -45.45350000     -33.87120000     -73.04470000
H      -45.54720000     -34.98270000     -73.12320000
H      -44.74990000     -33.62300000     -72.27260000
C      -45.55930000     -35.19030000     -69.92580000
H      -45.77970000     -36.24940000     -70.33030000
H      -44.89460000     -34.69290000     -70.60240000
C      -46.88630000     -34.47940000     -70.04500000
C      -47.87980000     -34.56340000     -69.11680000
C      -47.36870000     -33.75380000     -71.21260000
H      -47.89120000     -35.12830000     -68.18950000
C      -48.60330000     -33.21650000     -71.05370000
C      -46.84700000     -33.46060000     -72.56770000
C      -47.75020000     -32.79970000     -73.37480000
S      -49.35060000     -33.66140000     -69.50150000
S      -49.18130000     -32.38850000     -72.44810000
H      -47.43150000     -32.61610000     -74.37800000
