40
Properties=species:S:1:pos:R:3 #=T CELL(abcABC):=T 1.889726e+02=T 90.00000=T Traj:=T positionsangstrom=T Step:=T 0=T Bead:=T pbc="F F F"
C      -43.33550000     -32.89550000     -70.01830000
C      -44.32990000     -31.99300000     -69.79710000
C      -44.74300000     -31.14980000     -70.89640000
C      -44.26300000     -31.34460000     -72.18760000
C      -43.21920000     -32.27670000     -72.37100000
C      -42.67460000     -32.98680000     -71.30680000
H      -42.89610000     -33.62130000     -69.27340000
H      -45.57750000     -30.50020000     -70.71590000
H      -42.78820000     -32.37890000     -73.32440000
H      -41.83850000     -33.71330000     -71.32220000
C      -44.98500000     -30.63920000     -73.30460000
H      -44.43610000     -29.67320000     -73.52790000
H      -46.04550000     -30.32160000     -73.11310000
C      -44.89980000     -31.84200000     -68.41270000
H      -44.66690000     -32.63370000     -67.72930000
H      -44.40050000     -30.99560000     -67.99270000
S      -45.16130000     -31.72900000     -74.87430000
S      -46.64220000     -31.42600000     -67.95440000
C      -46.91120000     -32.49240000     -74.55600000
H      -47.61520000     -31.71930000     -74.67690000
H      -46.96320000     -33.30200000     -75.28750000
C      -47.71750000     -32.83840000     -68.54830000
H      -48.72810000     -32.52300000     -68.50950000
H      -47.67280000     -33.72730000     -67.85280000
C      -47.40370000     -33.31600000     -69.97630000
H      -48.38650000     -33.68740000     -70.36500000
H      -47.18180000     -32.50640000     -70.64660000
C      -47.07470000     -33.09230000     -73.17360000
H      -48.08760000     -33.45980000     -73.00900000
H      -47.02320000     -32.24530000     -72.44610000
C      -46.06000000     -34.24870000     -72.79980000
C      -45.20130000     -34.96020000     -73.62350000
C      -45.87610000     -34.75960000     -71.43250000
H      -44.90280000     -34.57730000     -74.66190000
C      -45.01010000     -35.89510000     -71.37750000
C      -46.39040000     -34.39340000     -70.11540000
C      -45.86380000     -35.12340000     -69.09250000
S      -44.22590000     -36.23460000     -72.83480000
S      -44.73400000     -36.32190000     -69.70750000
H      -45.99240000     -34.86760000     -68.02330000
