40
Properties=species:S:1:pos:R:3 #=T CELL(abcABC):=T 1.889726e+02=T 90.00000=T Traj:=T positionsangstrom=T Step:=T 0=T Bead:=T pbc="F F F"
C      -43.06360000     -32.81840000     -70.07910000
C      -44.18330000     -31.98020000     -69.80650000
C      -44.82770000     -31.30180000     -70.87970000
C      -44.44260000     -31.50400000     -72.21550000
C      -43.33080000     -32.32800000     -72.44500000
C      -42.69610000     -33.05120000     -71.41190000
H      -42.56410000     -33.21820000     -69.23330000
H      -45.82430000     -30.99950000     -70.54910000
H      -43.13300000     -32.47570000     -73.53500000
H      -41.84550000     -33.66000000     -71.66210000
C      -45.31420000     -30.81550000     -73.29040000
H      -44.90330000     -29.80170000     -73.50450000
H      -46.24450000     -30.58390000     -72.73260000
C      -44.67250000     -31.66470000     -68.38360000
H      -44.48900000     -32.55030000     -67.78720000
H      -44.10000000     -30.80430000     -67.96740000
S      -45.31370000     -31.73250000     -74.94170000
S      -46.44440000     -31.20670000     -68.12980000
C      -46.84180000     -32.66660000     -74.65700000
H      -47.71840000     -32.15520000     -74.93740000
H      -46.83280000     -33.50230000     -75.29020000
C      -47.42120000     -32.72710000     -68.24270000
H      -48.50300000     -32.45840000     -67.98270000
H      -47.06930000     -33.42340000     -67.50760000
C      -47.48390000     -33.39670000     -69.66660000
H      -48.48360000     -33.95700000     -69.84490000
H      -47.52290000     -32.53230000     -70.39780000
C      -47.16900000     -33.23720000     -73.21630000
H      -48.25280000     -33.56070000     -73.42750000
H      -47.25880000     -32.45230000     -72.50930000
C      -46.21720000     -34.29170000     -72.72600000
C      -45.48240000     -35.02660000     -73.61850000
C      -45.95860000     -34.78920000     -71.34990000
H      -45.59170000     -34.87870000     -74.66100000
C      -44.98380000     -35.73930000     -71.32230000
C      -46.36670000     -34.42170000     -70.01050000
C      -45.65720000     -35.09370000     -69.04370000
S      -44.41700000     -36.29970000     -72.87020000
S      -44.50320000     -36.19260000     -69.69310000
H      -45.74580000     -35.11690000     -67.99440000
