40
Properties=species:S:1:pos:R:3 #=T CELL(abcABC):=T 1.889726e+02=T 90.00000=T Traj:=T positionsangstrom=T Step:=T 0=T Bead:=T pbc="F F F"
C      -43.36370000     -33.25160000     -69.40720000
C      -44.39990000     -32.30710000     -69.32300000
C      -44.69700000     -31.42720000     -70.37270000
C      -43.87100000     -31.44560000     -71.51340000
C      -43.05770000     -32.59790000     -71.69430000
C      -42.72210000     -33.44780000     -70.64640000
H      -42.97600000     -33.76590000     -68.51230000
H      -45.55330000     -30.66210000     -70.25870000
H      -42.56400000     -32.69440000     -72.65360000
H      -42.11620000     -34.27710000     -70.80630000
C      -44.07950000     -30.45150000     -72.59970000
H      -43.21890000     -29.78390000     -72.79510000
H      -44.97350000     -29.92480000     -72.21540000
C      -45.20080000     -32.40250000     -67.98110000
H      -45.24300000     -33.44530000     -67.59320000
H      -44.67830000     -31.89550000     -67.12680000
S      -44.35630000     -31.09680000     -74.34380000
S      -46.93140000     -31.82150000     -68.03260000
C      -46.17640000     -31.56540000     -74.39800000
H      -46.84740000     -30.71890000     -74.39450000
H      -46.23400000     -32.07140000     -75.31320000
C      -47.98230000     -33.20200000     -68.68120000
H      -49.06480000     -32.93370000     -68.62130000
H      -47.79150000     -34.22770000     -68.22750000
C      -47.85590000     -33.57830000     -70.17550000
H      -48.85560000     -33.93750000     -70.41230000
H      -47.75780000     -32.70140000     -70.83700000
C      -46.69150000     -32.47400000     -73.27250000
H      -47.66910000     -32.77770000     -73.54400000
H      -46.70330000     -31.94460000     -72.33880000
C      -46.03090000     -33.82510000     -73.04550000
C      -45.26340000     -34.42780000     -74.02520000
C      -46.04660000     -34.56710000     -71.77640000
H      -45.06890000     -34.07030000     -75.07860000
C      -45.22290000     -35.68060000     -71.82710000
C      -46.78230000     -34.57250000     -70.53510000
C      -46.35950000     -35.59030000     -69.75200000
S      -44.42330000     -35.82260000     -73.37450000
S      -45.14470000     -36.71650000     -70.44900000
H      -46.80670000     -35.94170000     -68.77290000
