40
Properties=species:S:1:pos:R:3 #=T CELL(abcABC):=T 1.889726e+02=T 90.00000=T Traj:=T positionsangstrom=T Step:=T 0=T Bead:=T pbc="F F F"
C      -43.28780000     -32.98540000     -69.86560000
C      -44.36200000     -32.13730000     -69.65220000
C      -44.80410000     -31.38310000     -70.79200000
C      -44.19720000     -31.47550000     -72.02250000
C      -42.92540000     -32.18990000     -72.09170000
C      -42.57820000     -32.99780000     -71.06990000
H      -42.91920000     -33.65160000     -69.07860000
H      -45.82290000     -30.97870000     -70.76120000
H      -42.32850000     -32.18410000     -72.91400000
H      -41.76270000     -33.68870000     -71.19480000
C      -44.58530000     -30.56860000     -73.21870000
H      -43.84990000     -29.77680000     -73.56170000
H      -45.43480000     -29.97720000     -72.87110000
C      -45.08930000     -32.05440000     -68.31320000
H      -44.85680000     -32.94740000     -67.77760000
H      -44.55670000     -31.25300000     -67.82410000
S      -44.85330000     -31.57040000     -74.74040000
S      -46.85760000     -31.52260000     -68.28040000
C      -46.51340000     -32.32330000     -74.54400000
H      -47.23710000     -31.54220000     -74.80060000
H      -46.41180000     -33.24880000     -75.25570000
C      -47.93000000     -32.94630000     -68.68490000
H      -48.92780000     -32.63010000     -68.53290000
H      -47.70170000     -33.66500000     -67.82320000
C      -47.80740000     -33.57710000     -70.06540000
H      -48.74970000     -34.09890000     -70.29520000
H      -47.74750000     -32.76820000     -70.88240000
C      -46.79630000     -32.86460000     -73.15150000
H      -47.85760000     -33.20740000     -73.03750000
H      -46.78390000     -31.91140000     -72.52020000
C      -45.90360000     -33.96250000     -72.68480000
C      -44.93640000     -34.48510000     -73.46490000
C      -45.90990000     -34.66930000     -71.45820000
H      -44.58350000     -34.14160000     -74.42100000
C      -45.06470000     -35.73710000     -71.39010000
C      -46.64610000     -34.47580000     -70.20600000
C      -46.24750000     -35.45380000     -69.32460000
S      -44.07790000     -35.94510000     -72.81320000
S      -45.14960000     -36.63600000     -69.92770000
H      -46.56400000     -35.49660000     -68.28670000
