40
Properties=species:S:1:pos:R:3 #=T CELL(abcABC):=T 1.889726e+02=T 90.00000=T Traj:=T positionsangstrom=T Step:=T 0=T Bead:=T pbc="F F F"
C      -43.17080000     -32.85460000     -69.86990000
C      -44.27560000     -31.98580000     -69.70920000
C      -44.79830000     -31.28940000     -70.81100000
C      -44.27740000     -31.42300000     -72.04800000
C      -43.21450000     -32.30660000     -72.21420000
C      -42.69590000     -33.00470000     -71.15420000
H      -42.73880000     -33.39790000     -69.01480000
H      -45.67660000     -30.68550000     -70.67000000
H      -42.87910000     -32.59320000     -73.23240000
H      -41.80340000     -33.66980000     -71.28090000
C      -44.83480000     -30.60310000     -73.25960000
H      -44.00350000     -29.96280000     -73.40610000
H      -45.71570000     -30.03940000     -72.95620000
C      -44.84720000     -31.77410000     -68.28620000
H      -44.62500000     -32.71140000     -67.73180000
H      -44.42190000     -30.85820000     -67.80830000
S      -45.09890000     -31.62590000     -74.75220000
S      -46.65390000     -31.42680000     -68.23280000
C      -46.77090000     -32.49940000     -74.59480000
H      -47.58150000     -31.79450000     -74.97300000
H      -46.80010000     -33.19500000     -75.42320000
C      -47.69400000     -32.90960000     -68.59750000
H      -48.71910000     -32.45870000     -68.42340000
H      -47.55390000     -33.70530000     -67.91400000
C      -47.71160000     -33.54570000     -69.96690000
H      -48.70930000     -34.08370000     -70.06340000
H      -47.67340000     -32.76010000     -70.75670000
C      -47.04280000     -33.10380000     -73.22990000
H      -48.11930000     -33.43080000     -73.23670000
H      -47.06350000     -32.24330000     -72.55880000
C      -46.00220000     -34.15680000     -72.79990000
C      -45.08100000     -34.77880000     -73.64520000
C      -45.91540000     -34.67840000     -71.45510000
H      -44.77930000     -34.54500000     -74.71160000
C      -44.95960000     -35.71550000     -71.36650000
C      -46.57930000     -34.52780000     -70.19980000
C      -46.15160000     -35.42030000     -69.20060000
S      -44.07500000     -36.04870000     -72.86850000
S      -44.90360000     -36.44790000     -69.73850000
H      -46.59130000     -35.53860000     -68.21380000
