40
Properties=species:S:1:pos:R:3 #=T CELL(abcABC):=T 1.889726e+02=T 90.00000=T Traj:=T positionsangstrom=T Step:=T 0=T Bead:=T pbc="F F F"
C      -48.01460000     -33.62390000     -73.18250000
C      -47.09850000     -32.82470000     -73.83890000
C      -46.62790000     -31.65810000     -73.17870000
C      -47.22270000     -31.19450000     -71.99010000
C      -48.26300000     -31.92470000     -71.36010000
C      -48.54480000     -33.15340000     -71.92330000
H      -48.14250000     -34.68080000     -73.37810000
H      -45.72840000     -31.14980000     -73.44130000
H      -48.83340000     -31.60130000     -70.49430000
H      -49.23030000     -33.80480000     -71.38490000
C      -46.61640000     -29.93530000     -71.40350000
H      -47.04450000     -29.04910000     -71.89190000
H      -45.56320000     -29.94680000     -71.69590000
C      -46.38370000     -33.30760000     -75.12310000
H      -46.59840000     -34.36470000     -75.16890000
H      -46.74550000     -32.87250000     -76.08460000
S      -46.73440000     -29.87720000     -69.56560000
S      -44.58830000     -32.99960000     -75.21200000
C      -46.13020000     -31.52890000     -69.04940000
H      -45.94680000     -31.34160000     -68.03670000
H      -46.96460000     -32.22740000     -69.07470000
C      -43.92470000     -34.28900000     -74.04990000
H      -43.13810000     -34.78800000     -74.56470000
H      -44.69560000     -35.01760000     -73.91910000
C      -43.49650000     -33.61930000     -72.75560000
H      -42.51510000     -33.07330000     -72.85280000
H      -44.00130000     -32.69270000     -72.43370000
C      -44.87360000     -31.95910000     -69.76780000
H      -44.02970000     -31.33750000     -69.59190000
H      -44.99190000     -32.01490000     -70.84520000
C      -44.53670000     -33.39800000     -69.34590000
C      -44.81810000     -33.83480000     -68.07850000
C      -43.98470000     -34.43040000     -70.21350000
H      -45.16910000     -33.23620000     -67.23070000
C      -43.92710000     -35.65730000     -69.53720000
C      -43.60680000     -34.61900000     -71.57760000
C      -42.94250000     -35.81830000     -71.74030000
S      -44.33260000     -35.55940000     -67.85610000
S      -43.31950000     -36.98490000     -70.43120000
H      -42.55150000     -36.18120000     -72.66960000
