40
Properties=species:S:1:pos:R:3 #=T CELL(abcABC):=T 1.889726e+02=T 90.00000=T Traj:=T positionsangstrom=T Step:=T 0=T Bead:=T pbc="F F F"
C      -48.30680000     -33.18690000     -73.23810000
C      -47.34120000     -32.34250000     -73.67970000
C      -47.05450000     -31.20630000     -72.89260000
C      -47.63930000     -31.07690000     -71.61250000
C      -48.57060000     -32.02530000     -71.18940000
C      -48.92040000     -33.09250000     -71.97700000
H      -48.71720000     -33.96890000     -73.92720000
H      -46.40160000     -30.40290000     -73.11900000
H      -49.02530000     -32.05730000     -70.15090000
H      -49.69540000     -33.81070000     -71.69600000
C      -47.25610000     -29.89990000     -70.72830000
H      -48.04870000     -29.69950000     -69.98180000
H      -47.07040000     -29.02490000     -71.33900000
C      -46.67740000     -32.59680000     -74.94060000
H      -46.92080000     -33.67560000     -75.23840000
H      -47.07440000     -31.89900000     -75.75020000
S      -45.61990000     -30.06960000     -69.83170000
S      -44.85180000     -32.42740000     -75.11750000
C      -45.77130000     -31.62060000     -68.77500000
H      -44.83960000     -31.70970000     -68.17310000
H      -46.62040000     -31.51480000     -68.05620000
C      -44.29580000     -33.87140000     -74.19640000
H      -43.19670000     -33.88800000     -74.34390000
H      -44.71610000     -34.77830000     -74.65260000
C      -44.55000000     -33.76750000     -72.63950000
H      -44.21750000     -32.77520000     -72.35370000
H      -45.60880000     -33.75600000     -72.33160000
C      -45.92700000     -32.96160000     -69.64410000
H      -45.86050000     -32.61560000     -70.66780000
H      -46.94060000     -33.40620000     -69.66680000
C      -44.83670000     -33.95170000     -69.36150000
C      -44.64900000     -34.42490000     -68.07740000
C      -44.18150000     -34.84830000     -70.33910000
H      -45.11310000     -34.00700000     -67.18420000
C      -43.44890000     -35.81910000     -69.66540000
C      -43.94140000     -34.87550000     -71.78140000
C      -43.12100000     -35.88970000     -72.17220000
S      -43.52290000     -35.81240000     -67.91570000
S      -42.58310000     -36.86350000     -70.74520000
H      -42.81960000     -36.17490000     -73.15270000
