40
Properties=species:S:1:pos:R:3 #=T CELL(abcABC):=T 1.889726e+02=T 90.00000=T Traj:=T positionsangstrom=T Step:=T 0=T Bead:=T pbc="F F F"
C      -48.61860000     -33.08590000     -73.11380000
C      -47.47770000     -32.37090000     -73.44430000
C      -47.02770000     -31.38780000     -72.57870000
C      -47.66200000     -31.09410000     -71.42600000
C      -48.76270000     -31.91670000     -71.09580000
C      -49.28160000     -32.91580000     -71.92690000
H      -48.97650000     -33.79800000     -73.82190000
H      -46.20430000     -30.72570000     -72.91870000
H      -49.25600000     -31.77410000     -70.21820000
H      -50.20950000     -33.42560000     -71.70890000
C      -47.23020000     -30.04050000     -70.55520000
H      -47.69520000     -30.03230000     -69.55990000
H      -47.44350000     -29.04030000     -71.02810000
C      -46.80540000     -32.58690000     -74.76630000
H      -46.86380000     -33.63780000     -75.10890000
H      -47.30950000     -32.14050000     -75.64500000
S      -45.42090000     -30.29990000     -70.12860000
S      -44.99290000     -32.07680000     -74.84840000
C      -45.57590000     -31.75380000     -68.91080000
H      -44.60610000     -31.80950000     -68.37760000
H      -46.26260000     -31.40650000     -68.09890000
C      -44.24310000     -33.54930000     -74.05380000
H      -43.19900000     -33.26680000     -73.90720000
H      -44.18150000     -34.49180000     -74.63750000
C      -44.82120000     -33.71220000     -72.59850000
H      -44.73810000     -32.81490000     -71.97250000
H      -45.86920000     -33.92480000     -72.62350000
C      -45.93080000     -33.16010000     -69.33570000
H      -46.35890000     -33.20290000     -70.35810000
H      -46.64100000     -33.39810000     -68.56360000
C      -44.81910000     -34.22480000     -69.24180000
C      -44.41010000     -34.68120000     -67.99830000
C      -44.13530000     -34.86730000     -70.32460000
H      -44.96990000     -34.39860000     -67.06630000
C      -43.34770000     -35.90420000     -69.90130000
C      -44.05350000     -34.76390000     -71.77920000
C      -43.28700000     -35.75960000     -72.36230000
S      -43.23290000     -35.95760000     -68.11230000
S      -42.52420000     -36.71510000     -71.16970000
H      -43.11580000     -36.01460000     -73.36270000
