40
Properties=species:S:1:pos:R:3 #=T CELL(abcABC):=T 1.889726e+02=T 90.00000=T Traj:=T positionsangstrom=T Step:=T 0=T Bead:=T pbc="F F F"
C      -48.02660000     -33.62680000     -73.87170000
C      -46.94410000     -32.74930000     -74.13040000
C      -46.83030000     -31.55950000     -73.46140000
C      -47.73280000     -31.17560000     -72.42710000
C      -48.79570000     -32.02440000     -72.19060000
C      -48.91900000     -33.28390000     -72.83700000
H      -48.10900000     -34.60120000     -74.43860000
H      -46.02650000     -30.86800000     -73.69450000
H      -49.38720000     -31.86790000     -71.27360000
H      -49.73980000     -33.90200000     -72.51950000
C      -47.46200000     -29.83540000     -71.68740000
H      -48.43520000     -29.45700000     -71.40030000
H      -46.83080000     -29.17540000     -72.28420000
C      -45.92470000     -33.11340000     -75.28840000
H      -45.97290000     -34.15130000     -75.43270000
H      -46.17890000     -32.71220000     -76.29030000
S      -46.59310000     -30.10540000     -70.00860000
S      -44.15480000     -32.67680000     -74.88730000
C      -46.35580000     -31.91970000     -69.81610000
H      -47.05450000     -32.30810000     -69.06590000
H      -46.57680000     -32.41130000     -70.76420000
C      -43.81440000     -34.09330000     -73.78160000
H      -42.68810000     -34.19750000     -73.70630000
H      -44.28330000     -34.97520000     -74.24740000
C      -44.28720000     -33.84790000     -72.29890000
H      -43.79260000     -32.87170000     -72.02380000
H      -45.33220000     -33.69220000     -72.31680000
C      -44.84210000     -31.98170000     -69.47480000
H      -44.54890000     -31.31570000     -68.68300000
H      -44.22090000     -31.71180000     -70.43360000
C      -44.45400000     -33.38990000     -69.02410000
C      -44.40390000     -33.78720000     -67.65710000
C      -44.13640000     -34.58710000     -69.88030000
H      -44.54490000     -33.11390000     -66.80760000
C      -43.83320000     -35.71210000     -69.09660000
C      -43.90620000     -34.80510000     -71.27960000
C      -43.27460000     -36.00530000     -71.54720000
S      -43.85250000     -35.39320000     -67.36630000
S      -43.12220000     -36.96680000     -70.09130000
H      -43.07710000     -36.32990000     -72.53060000
