40
Properties=species:S:1:pos:R:3 #=T CELL(abcABC):=T 1.889726e+02=T 90.00000=T Traj:=T positionsangstrom=T Step:=T 0=T Bead:=T pbc="F F F"
C      -47.61790000     -33.72310000     -74.57830000
C      -46.67460000     -32.71770000     -74.48950000
C      -46.79900000     -31.69880000     -73.51880000
C      -47.91090000     -31.71170000     -72.66180000
C      -48.92590000     -32.64170000     -72.85280000
C      -48.72060000     -33.70180000     -73.76140000
H      -47.36920000     -34.45290000     -75.32080000
H      -46.08340000     -30.88290000     -73.51080000
H      -49.79920000     -32.61790000     -72.27380000
H      -49.43000000     -34.56790000     -73.73420000
C      -48.12880000     -30.62230000     -71.61930000
H      -48.77990000     -31.07530000     -70.88990000
H      -48.49310000     -29.73580000     -72.15920000
C      -45.44940000     -32.70270000     -75.35620000
H      -45.47290000     -33.67660000     -75.82620000
H      -45.48230000     -31.84960000     -76.05340000
S      -46.53830000     -30.16080000     -70.76760000
S      -43.85480000     -32.55970000     -74.47060000
C      -46.20210000     -31.87180000     -70.00540000
H      -47.00250000     -32.13310000     -69.28720000
H      -46.27770000     -32.64390000     -70.72950000
C      -43.60550000     -34.00540000     -73.36550000
H      -42.56970000     -33.83520000     -72.99890000
H      -43.60210000     -34.88920000     -73.91550000
C      -44.54750000     -33.82240000     -72.18650000
H      -44.58400000     -32.84990000     -71.81400000
H      -45.63010000     -34.00910000     -72.40600000
C      -44.87880000     -31.80110000     -69.24530000
H      -44.97760000     -31.06960000     -68.34370000
H      -44.09390000     -31.38600000     -69.86010000
C      -44.46390000     -33.17670000     -68.78110000
C      -44.31090000     -33.48720000     -67.44040000
C      -44.18140000     -34.36690000     -69.60530000
H      -44.59320000     -32.87150000     -66.58330000
C      -43.78480000     -35.44860000     -68.80150000
C      -44.19640000     -34.74600000     -71.04110000
C      -43.79770000     -36.07820000     -71.22470000
S      -43.69730000     -35.13650000     -67.10510000
S      -43.50450000     -36.93180000     -69.71610000
H      -43.60910000     -36.50480000     -72.21670000
