40
Properties=species:S:1:pos:R:3 #=T CELL(abcABC):=T 1.889726e+02=T 90.00000=T Traj:=T positionsangstrom=T Step:=T 0=T Bead:=T pbc="F F F"
C      -47.97150000     -33.53700000     -74.05050000
C      -46.93360000     -32.64280000     -74.30400000
C      -46.90180000     -31.45160000     -73.51910000
C      -47.91710000     -31.05600000     -72.63360000
C      -48.93880000     -31.97010000     -72.40410000
C      -48.97270000     -33.19460000     -73.09560000
H      -48.10490000     -34.46460000     -74.61580000
H      -46.08350000     -30.79620000     -73.68270000
H      -49.80250000     -31.69060000     -71.83860000
H      -49.85510000     -33.80290000     -72.91920000
C      -47.83390000     -29.87200000     -71.75840000
H      -48.84070000     -29.56960000     -71.43600000
H      -47.43740000     -28.98290000     -72.29630000
C      -45.89860000     -32.86360000     -75.36580000
H      -46.13060000     -33.81190000     -75.92770000
H      -45.90000000     -31.95960000     -75.99620000
S      -46.72450000     -30.09780000     -70.22650000
S      -44.15070000     -32.74650000     -74.74270000
C      -46.17630000     -31.89930000     -70.09710000
H      -46.89230000     -32.44920000     -69.48900000
H      -46.19610000     -32.31610000     -71.04370000
C      -43.84400000     -34.17320000     -73.57240000
H      -42.81890000     -34.44020000     -73.70900000
H      -44.45900000     -34.96470000     -74.03320000
C      -44.23470000     -33.83230000     -72.13960000
H      -43.63310000     -32.96720000     -71.79030000
H      -45.29680000     -33.55230000     -72.04490000
C      -44.75810000     -32.01220000     -69.39260000
H      -44.79450000     -31.30740000     -68.55690000
H      -43.99350000     -31.52080000     -70.04460000
C      -44.31450000     -33.39670000     -68.87220000
C      -44.31340000     -33.74680000     -67.51730000
C      -43.92710000     -34.57780000     -69.74670000
H      -44.46910000     -33.16170000     -66.58810000
C      -43.45990000     -35.65750000     -68.98820000
C      -43.97050000     -34.90990000     -71.11690000
C      -43.62440000     -36.19170000     -71.46410000
S      -43.65660000     -35.45450000     -67.23430000
S      -43.12700000     -37.07550000     -70.02620000
H      -43.55440000     -36.62460000     -72.41270000
