40
Properties=species:S:1:pos:R:3 #=T CELL(abcABC):=T 1.889726e+02=T 90.00000=T Traj:=T positionsangstrom=T Step:=T 0=T Bead:=T pbc="F F F"
C      -47.95410000     -33.61030000     -73.75110000
C      -46.93750000     -32.77680000     -74.08360000
C      -46.69670000     -31.56280000     -73.36220000
C      -47.50860000     -31.20700000     -72.31900000
C      -48.53790000     -32.10880000     -71.91780000
C      -48.75880000     -33.25410000     -72.65060000
H      -48.07150000     -34.54620000     -74.24000000
H      -45.83670000     -30.93930000     -73.58670000
H      -49.26390000     -31.78400000     -71.13710000
H      -49.65340000     -33.87720000     -72.41470000
C      -47.31000000     -29.90210000     -71.69490000
H      -48.22180000     -29.24410000     -71.67880000
H      -46.58610000     -29.35430000     -72.25460000
C      -46.14220000     -33.15850000     -75.30430000
H      -46.21910000     -34.25930000     -75.51230000
H      -46.48480000     -32.59560000     -76.18680000
S      -46.70380000     -29.92830000     -69.95160000
S      -44.29910000     -32.82320000     -75.18380000
C      -46.40510000     -31.67690000     -69.45630000
H      -46.78180000     -31.81460000     -68.47630000
H      -46.95490000     -32.41400000     -70.12060000
C      -43.62020000     -33.90120000     -73.77350000
H      -42.53170000     -33.79210000     -73.77940000
H      -43.76550000     -34.93350000     -74.01140000
C      -44.19420000     -33.73970000     -72.38700000
H      -43.87180000     -32.79860000     -71.95170000
H      -45.28490000     -33.60200000     -72.35720000
C      -44.84660000     -32.02400000     -69.51160000
H      -44.38340000     -31.27020000     -68.88570000
H      -44.61570000     -31.83230000     -70.55990000
C      -44.50230000     -33.47310000     -69.04260000
C      -44.56970000     -33.82840000     -67.68540000
C      -44.02730000     -34.55400000     -69.88360000
H      -44.82980000     -33.20530000     -66.89790000
C      -43.77360000     -35.70480000     -69.17460000
C      -43.90480000     -34.79530000     -71.35070000
C      -43.31740000     -36.01610000     -71.56610000
S      -43.99920000     -35.55330000     -67.45000000
S      -43.08480000     -36.94290000     -70.12360000
H      -43.00990000     -36.46830000     -72.50970000
