40
Properties=species:S:1:pos:R:3 #=T CELL(abcABC):=T 1.889726e+02=T 90.00000=T Traj:=T positionsangstrom=T Step:=T 0=T Bead:=T pbc="F F F"
C      -46.30440000     -34.40200000     -73.67890000
C      -46.03020000     -33.14320000     -74.19810000
C      -46.79240000     -32.00580000     -73.77430000
C      -47.67040000     -32.11120000     -72.73840000
C      -47.93130000     -33.40000000     -72.20150000
C      -47.25080000     -34.51150000     -72.64510000
H      -45.76390000     -35.25850000     -74.04740000
H      -46.44890000     -30.99840000     -74.20950000
H      -48.57480000     -33.49470000     -71.39350000
H      -47.45840000     -35.48180000     -72.13630000
C      -48.31590000     -30.87540000     -72.18750000
H      -49.18950000     -31.01940000     -71.48910000
H      -48.71750000     -30.20140000     -73.03310000
C      -45.01960000     -32.95360000     -75.34120000
H      -45.15090000     -33.83870000     -76.06390000
H      -45.27230000     -32.06810000     -76.01160000
S      -47.04690000     -29.93850000     -71.24810000
S      -43.32970000     -32.66010000     -74.59290000
C      -46.72200000     -31.33730000     -69.96870000
H      -47.14350000     -30.92490000     -69.02680000
H      -47.37470000     -32.17190000     -70.34200000
C      -43.05190000     -33.98670000     -73.33740000
H      -41.95290000     -34.01040000     -73.16870000
H      -43.28360000     -34.92730000     -73.77870000
C      -43.76780000     -33.60990000     -72.06020000
H      -43.20940000     -32.83170000     -71.51250000
H      -44.65150000     -33.04130000     -72.29220000
C      -45.27180000     -31.66170000     -69.86390000
H      -44.73050000     -30.81420000     -69.41520000
H      -44.81280000     -31.86090000     -70.87150000
C      -44.94490000     -32.94330000     -69.08370000
C      -45.06940000     -33.09430000     -67.71500000
C      -44.48920000     -34.19720000     -69.73860000
H      -45.45520000     -32.26400000     -67.19550000
C      -44.44200000     -35.23120000     -68.83010000
C      -43.94500000     -34.65670000     -70.99930000
C      -43.63600000     -36.00200000     -70.97710000
S      -44.88890000     -34.71770000     -67.21720000
S      -43.82720000     -36.77900000     -69.45150000
H      -43.20600000     -36.47360000     -71.86110000
