40
Properties=species:S:1:pos:R:3 #=T CELL(abcABC):=T 1.889726e+02=T 90.00000=T Traj:=T positionsangstrom=T Step:=T 0=T Bead:=T pbc="F F F"
C      -44.38050000     -33.83510000     -67.64840000
C      -43.44080000     -32.99220000     -68.21580000
C      -43.89490000     -31.75550000     -68.73270000
C      -45.25890000     -31.38870000     -68.83180000
C      -46.15330000     -32.27140000     -68.28000000
C      -45.70660000     -33.39930000     -67.57510000
H      -44.09540000     -34.75960000     -67.15650000
H      -43.09330000     -30.97300000     -68.98040000
H      -47.18170000     -32.28550000     -68.49240000
H      -46.50510000     -34.06970000     -67.20750000
C      -45.57840000     -30.18190000     -69.60550000
H      -44.78630000     -29.45680000     -69.86830000
H      -46.37960000     -29.69380000     -69.06530000
C      -41.98010000     -33.23090000     -68.46840000
H      -41.42770000     -32.34670000     -68.29810000
H      -41.57610000     -33.94180000     -67.82180000
S      -46.29630000     -30.58160000     -71.38410000
S      -41.84680000     -33.69630000     -70.21930000
C      -44.79200000     -31.26870000     -72.18330000
H      -43.92860000     -30.54370000     -72.08070000
H      -44.54620000     -32.17290000     -71.65840000
C      -43.33990000     -34.60660000     -70.65630000
H      -44.15280000     -33.99080000     -70.29460000
H      -43.34610000     -35.62180000     -70.24800000
C      -43.56610000     -34.58530000     -72.20760000
H      -43.54750000     -33.58290000     -72.58840000
H      -42.74670000     -35.07470000     -72.75400000
C      -45.20870000     -31.67240000     -73.65020000
H      -44.28930000     -31.91180000     -74.17040000
H      -45.78310000     -30.85650000     -74.11950000
C      -46.19550000     -32.84350000     -73.63330000
C      -47.43440000     -32.71480000     -74.14120000
C      -46.02070000     -34.26670000     -73.20400000
H      -47.75270000     -31.69530000     -74.39420000
C      -47.15530000     -35.03930000     -73.42280000
C      -44.95570000     -35.07090000     -72.57130000
C      -45.33550000     -36.39840000     -72.40710000
S      -48.51740000     -34.14860000     -74.01590000
S      -46.98170000     -36.69160000     -72.93700000
H      -44.75710000     -37.16760000     -71.97040000
