40
Properties=species:S:1:pos:R:3 #=T CELL(abcABC):=T 1.889726e+02=T 90.00000=T Traj:=T positionsangstrom=T Step:=T 0=T Bead:=T pbc="F F F"
C      -47.31510000     -34.07990000     -74.51880000
C      -46.57510000     -32.89070000     -74.58420000
C      -46.86600000     -31.82050000     -73.70750000
C      -47.91490000     -31.92270000     -72.77640000
C      -48.74460000     -33.05090000     -72.82530000
C      -48.41830000     -34.14660000     -73.62640000
H      -46.95480000     -34.87350000     -75.15560000
H      -46.26570000     -30.91120000     -73.66470000
H      -49.49420000     -33.11800000     -71.99860000
H      -49.00740000     -34.98210000     -73.49590000
C      -48.17280000     -30.85490000     -71.75900000
H      -48.88350000     -31.12360000     -70.99330000
H      -48.58010000     -29.96370000     -72.18320000
C      -45.33690000     -32.79000000     -75.46610000
H      -45.13480000     -33.73850000     -76.03060000
H      -45.48140000     -32.10170000     -76.28040000
S      -46.59280000     -30.35710000     -70.91240000
S      -43.83560000     -32.32600000     -74.47150000
C      -46.41210000     -31.74330000     -69.75060000
H      -46.90450000     -31.48350000     -68.89610000
H      -46.79370000     -32.69960000     -70.16020000
C      -43.55520000     -33.82350000     -73.40540000
H      -42.51950000     -33.93600000     -73.53530000
H      -44.01860000     -34.78590000     -73.76610000
C      -43.90980000     -33.43140000     -71.98030000
H      -43.10670000     -32.85000000     -71.52540000
H      -44.86160000     -32.84550000     -71.91870000
C      -44.95220000     -31.77510000     -69.36850000
H      -44.76320000     -31.06500000     -68.55750000
H      -44.29850000     -31.39280000     -70.24940000
C      -44.54230000     -33.10730000     -68.79440000
C      -44.39250000     -33.37580000     -67.45190000
C      -44.19580000     -34.31770000     -69.52990000
H      -44.33130000     -32.61330000     -66.62290000
C      -44.06310000     -35.44980000     -68.74070000
C      -43.99270000     -34.57490000     -70.97360000
C      -43.60940000     -35.89030000     -71.17690000
S      -43.96470000     -34.98940000     -67.04230000
S      -43.75370000     -36.85070000     -69.69470000
H      -43.51650000     -36.42550000     -72.11390000
