40
Properties=species:S:1:pos:R:3 #=T CELL(abcABC):=T 1.889726e+02=T 90.00000=T Traj:=T positionsangstrom=T Step:=T 0=T Bead:=T pbc="F F F"
C      -49.00780000     -33.08850000     -71.92070000
C      -47.71250000     -32.72910000     -71.42550000
C      -46.92320000     -33.73580000     -70.94240000
C      -47.29890000     -35.05210000     -70.90530000
C      -48.61330000     -35.41910000     -71.29950000
C      -49.47640000     -34.36650000     -71.79330000
H      -49.68130000     -32.34920000     -72.31150000
H      -45.95400000     -33.50250000     -70.61660000
H      -48.89370000     -36.46700000     -71.25590000
H      -50.48260000     -34.50080000     -72.17230000
C      -46.30270000     -36.05580000     -70.48550000
H      -46.76790000     -36.82790000     -69.91430000
H      -45.37760000     -35.61340000     -70.09580000
C      -47.28440000     -31.25880000     -71.28030000
H      -48.10680000     -30.68070000     -70.96760000
H      -46.41030000     -31.28440000     -70.59380000
S      -45.65430000     -36.95340000     -72.00400000
S      -46.59470000     -30.49350000     -72.80230000
C      -44.78960000     -35.64190000     -72.94010000
H      -44.76610000     -35.98650000     -73.95960000
H      -45.39960000     -34.71530000     -72.98810000
C      -45.73200000     -31.97520000     -73.61780000
H      -45.89380000     -31.79390000     -74.65700000
H      -46.22120000     -32.89890000     -73.31230000
C      -44.23150000     -32.08230000     -73.44520000
H      -43.87240000     -32.99860000     -73.94710000
H      -43.85240000     -31.26630000     -74.02700000
C      -43.35210000     -35.30020000     -72.37110000
H      -42.84720000     -34.79370000     -73.20060000
H      -42.76950000     -36.23400000     -72.28560000
C      -43.29270000     -34.45540000     -71.12700000
C      -43.06890000     -34.96500000     -69.83030000
C      -43.54660000     -33.03500000     -71.08650000
H      -42.93740000     -36.03060000     -69.66460000
C      -43.31970000     -32.56180000     -69.80570000
C      -43.76230000     -31.95450000     -72.03530000
C      -43.83000000     -30.70440000     -71.37360000
S      -43.08620000     -33.72160000     -68.63050000
S      -43.37100000     -30.82820000     -69.69310000
H      -43.85830000     -29.75830000     -71.85860000
