40
Properties=species:S:1:pos:R:3 #=T CELL(abcABC):=T 1.889726e+02=T 90.00000=T Traj:=T positionsangstrom=T Step:=T 0=T Bead:=T pbc="F F F"
C      -44.87000000     -33.60740000     -67.36290000
C      -43.88350000     -32.93030000     -68.07750000
C      -44.32060000     -31.80740000     -68.84960000
C      -45.62090000     -31.39900000     -68.98440000
C      -46.62060000     -32.14240000     -68.31150000
C      -46.22560000     -33.25040000     -67.53970000
H      -44.67370000     -34.40970000     -66.63490000
H      -43.42710000     -31.29420000     -69.15740000
H      -47.71020000     -32.05570000     -68.40130000
H      -47.00170000     -33.82070000     -66.97780000
C      -46.10270000     -30.29120000     -69.83140000
H      -45.50560000     -29.39310000     -69.90230000
H      -47.12120000     -30.05650000     -69.53930000
C      -42.44450000     -33.42610000     -68.12950000
H      -41.80590000     -32.63900000     -67.68820000
H      -42.34300000     -34.32360000     -67.49450000
S      -46.28600000     -30.84030000     -71.71210000
S      -41.89850000     -33.85830000     -69.85820000
C      -44.65870000     -31.28780000     -72.22830000
H      -43.95090000     -30.49390000     -72.17640000
H      -44.39590000     -32.06670000     -71.56150000
C      -43.24750000     -34.76050000     -70.57420000
H      -44.15210000     -34.25780000     -70.24170000
H      -43.27830000     -35.73250000     -70.18510000
C      -43.34480000     -34.69190000     -72.12600000
H      -43.19340000     -33.68220000     -72.47250000
H      -42.59620000     -35.18390000     -72.67620000
C      -44.63770000     -31.83190000     -73.69530000
H      -43.57480000     -32.23410000     -73.81900000
H      -44.79900000     -31.01790000     -74.33670000
C      -45.68010000     -32.91240000     -73.81780000
C      -46.78690000     -32.74750000     -74.66080000
C      -45.70300000     -34.20720000     -73.18830000
H      -46.93650000     -31.85140000     -75.31790000
C      -46.95870000     -34.82230000     -73.32430000
C      -44.72880000     -35.11160000     -72.63490000
C      -45.32800000     -36.30690000     -72.21350000
S      -48.05470000     -33.99150000     -74.43410000
S      -47.06710000     -36.37560000     -72.53760000
H      -44.99100000     -37.14610000     -71.67560000
