40
Properties=species:S:1:pos:R:3 #=T CELL(abcABC):=T 1.889726e+02=T 90.00000=T Traj:=T positionsangstrom=T Step:=T 0=T Bead:=T pbc="F F F"
C      -46.35810000     -31.94270000     -69.58070000
C      -45.49740000     -31.14420000     -70.29880000
C      -45.69990000     -30.94910000     -71.66490000
C      -46.73280000     -31.60460000     -72.35790000
C      -47.64780000     -32.38360000     -71.55400000
C      -47.51920000     -32.51860000     -70.16600000
H      -46.06890000     -31.92180000     -68.56610000
H      -44.94040000     -30.39620000     -72.17550000
H      -48.48870000     -32.92200000     -72.04910000
H      -48.12040000     -33.22660000     -69.61730000
C      -46.91660000     -31.50320000     -73.90170000
H      -46.43660000     -30.47430000     -74.32410000
H      -47.97140000     -31.51040000     -74.20250000
C      -44.29580000     -30.45620000     -69.67850000
H      -43.97770000     -29.64660000     -70.37370000
H      -44.41750000     -29.96810000     -68.70060000
S      -46.25600000     -32.86200000     -74.91460000
S      -42.86060000     -31.68210000     -69.38560000
C      -44.57230000     -33.17860000     -74.31250000
H      -43.87060000     -33.09860000     -75.20700000
H      -44.30650000     -32.34100000     -73.63880000
C      -42.47480000     -32.45670000     -70.93420000
H      -41.62200000     -31.95000000     -71.32020000
H      -43.33220000     -32.20040000     -71.62470000
C      -42.29160000     -33.94490000     -70.84400000
H      -41.95290000     -34.48920000     -71.72390000
H      -41.57040000     -34.08110000     -70.07840000
C      -44.25020000     -34.55510000     -73.65060000
H      -43.33010000     -34.53530000     -73.14230000
H      -44.20350000     -35.31510000     -74.50870000
C      -45.25760000     -34.93360000     -72.57410000
C      -46.56770000     -35.30350000     -72.72660000
C      -44.84200000     -35.01290000     -71.16600000
H      -47.14210000     -35.47580000     -73.64410000
C      -45.91820000     -35.44710000     -70.32970000
C      -43.63110000     -34.61770000     -70.41750000
C      -43.91260000     -34.65970000     -69.06880000
S      -47.36620000     -35.67230000     -71.23920000
S      -45.50510000     -35.30840000     -68.65930000
H      -43.23970000     -34.49020000     -68.22340000
