40
Properties=species:S:1:pos:R:3 #=T CELL(abcABC):=T 1.889726e+02=T 90.00000=T Traj:=T positionsangstrom=T Step:=T 0=T Bead:=T pbc="F F F"
C      -46.26690000     -31.80840000     -69.56280000
C      -45.43860000     -31.06140000     -70.42180000
C      -45.71470000     -30.99970000     -71.75940000
C      -46.79850000     -31.67780000     -72.31910000
C      -47.60600000     -32.39530000     -71.46230000
C      -47.31450000     -32.46870000     -70.09530000
H      -45.91490000     -31.78350000     -68.47050000
H      -45.09490000     -30.42860000     -72.38460000
H      -48.49800000     -32.84630000     -71.88440000
H      -47.95850000     -33.13920000     -69.52640000
C      -47.11540000     -31.55040000     -73.72410000
H      -46.60480000     -30.66850000     -74.07960000
H      -48.13550000     -31.39130000     -73.90250000
C      -44.26550000     -30.43060000     -69.78150000
H      -43.89710000     -29.65940000     -70.45280000
H      -44.47820000     -30.01970000     -68.79900000
S      -46.35240000     -32.90140000     -74.77620000
S      -42.92290000     -31.55520000     -69.32700000
C      -44.64450000     -32.96990000     -74.21110000
H      -44.01400000     -32.58380000     -75.01300000
H      -44.51000000     -32.36490000     -73.34720000
C      -42.54690000     -32.47830000     -70.93140000
H      -41.58840000     -32.13190000     -71.31970000
H      -43.36420000     -32.07770000     -71.63340000
C      -42.42530000     -34.02240000     -70.97000000
H      -42.33550000     -34.26740000     -72.08010000
H      -41.49360000     -34.33970000     -70.36810000
C      -44.37090000     -34.44630000     -73.84650000
H      -43.32140000     -34.65670000     -73.78940000
H      -44.71290000     -35.09620000     -74.62790000
C      -45.14830000     -34.84510000     -72.60150000
C      -46.37800000     -35.34680000     -72.83920000
C      -44.81970000     -34.79050000     -71.18200000
H      -46.82730000     -35.48480000     -73.78460000
C      -45.83160000     -35.35760000     -70.37390000
C      -43.66260000     -34.60750000     -70.35360000
C      -43.87290000     -34.85030000     -68.99890000
S      -47.27800000     -35.75250000     -71.33810000
S      -45.46500000     -35.52290000     -68.66340000
H      -43.24020000     -34.52690000     -68.17340000
