40
Properties=species:S:1:pos:R:3 #=T CELL(abcABC):=T 1.889726e+02=T 90.00000=T Traj:=T positionsangstrom=T Step:=T 0=T Bead:=T pbc="F F F"
C      -45.59290000     -32.09410000     -69.10850000
C      -44.99380000     -31.14580000     -69.91150000
C      -45.66270000     -30.76690000     -71.05400000
C      -46.85220000     -31.37950000     -71.48760000
C      -47.48850000     -32.24940000     -70.62240000
C      -46.89400000     -32.59770000     -69.43660000
H      -45.24660000     -32.25160000     -68.12990000
H      -45.14830000     -29.98090000     -71.63900000
H      -48.36070000     -32.82640000     -70.95660000
H      -47.31010000     -33.30870000     -68.81270000
C      -47.53750000     -31.05760000     -72.76980000
H      -47.05080000     -30.24290000     -73.20340000
H      -48.59090000     -30.91940000     -72.62950000
C      -43.57860000     -30.61730000     -69.61760000
H      -43.43640000     -29.75270000     -70.23670000
H      -43.44320000     -30.31190000     -68.62050000
S      -47.34990000     -32.41440000     -73.93850000
S      -42.19040000     -31.78140000     -70.01540000
C      -45.58910000     -32.72060000     -74.06010000
H      -45.09540000     -32.09890000     -74.85510000
H      -45.11180000     -32.43100000     -73.14000000
C      -42.53860000     -32.26480000     -71.70590000
H      -41.88390000     -31.73720000     -72.39360000
H      -43.54650000     -31.87230000     -71.93830000
C      -42.57120000     -33.80010000     -72.00720000
H      -42.72630000     -33.85330000     -73.07710000
H      -41.62240000     -34.23740000     -71.89830000
C      -45.31050000     -34.19220000     -74.21260000
H      -44.28400000     -34.44010000     -74.53620000
H      -45.85700000     -34.54670000     -75.04900000
C      -45.76070000     -34.95560000     -72.90420000
C      -46.99770000     -35.54230000     -72.82610000
C      -45.01850000     -35.03830000     -71.66090000
H      -47.63940000     -35.83120000     -73.61870000
C      -45.67340000     -35.71530000     -70.64470000
C      -43.67710000     -34.55480000     -71.20350000
C      -43.48540000     -34.75360000     -69.87400000
S      -47.28800000     -36.23140000     -71.15290000
S      -44.71880000     -35.63060000     -69.10870000
H      -42.69540000     -34.34240000     -69.27110000
