40
Properties=species:S:1:pos:R:3 #=T CELL(abcABC):=T 1.889726e+02=T 90.00000=T Traj:=T positionsangstrom=T Step:=T 0=T Bead:=T pbc="F F F"
C      -42.21970000     -32.62320000     -72.88110000
C      -43.14850000     -32.21330000     -71.95530000
C      -42.99280000     -32.69270000     -70.65340000
C      -42.06210000     -33.64860000     -70.29280000
C      -41.18130000     -34.15120000     -71.27630000
C      -41.34080000     -33.70580000     -72.58350000
H      -42.21070000     -32.19150000     -73.88910000
H      -43.71990000     -32.32920000     -69.91630000
H      -40.37170000     -34.83500000     -71.01200000
H      -40.65560000     -34.13730000     -73.26350000
C      -42.02140000     -34.13420000     -68.84520000
H      -42.40760000     -33.37950000     -68.10400000
H      -40.98250000     -34.38540000     -68.66840000
C      -44.30810000     -31.26920000     -72.21680000
H      -45.22250000     -31.73640000     -71.79110000
H      -44.17000000     -30.26760000     -71.82790000
S      -42.95320000     -35.63490000     -68.51330000
S      -44.72950000     -31.17980000     -74.11450000
C      -44.68180000     -35.11900000     -68.66800000
H      -45.14470000     -35.83650000     -68.00210000
H      -44.79220000     -34.08630000     -68.13790000
C      -44.93320000     -32.95620000     -74.51170000
H      -43.90410000     -33.33080000     -74.76480000
H      -45.63090000     -32.93630000     -75.38050000
C      -45.55540000     -33.85590000     -73.42710000
H      -45.68800000     -34.83690000     -73.92040000
H      -44.76300000     -33.92510000     -72.69800000
C      -45.33130000     -35.12650000     -70.07750000
H      -45.52190000     -36.15670000     -70.39600000
H      -44.71880000     -34.60670000     -70.72830000
C      -46.75050000     -34.39390000     -70.14730000
C      -47.63910000     -34.27270000     -69.06820000
C      -47.21030000     -33.66260000     -71.31060000
H      -47.64140000     -34.74520000     -68.06430000
C      -48.44730000     -32.99350000     -71.02740000
C      -46.82450000     -33.39630000     -72.69150000
C      -47.79510000     -32.77260000     -73.38820000
S      -49.13880000     -33.49840000     -69.48460000
S      -49.19570000     -32.25540000     -72.41940000
H      -47.73870000     -32.39880000     -74.39310000
