40
Properties=species:S:1:pos:R:3 #=T CELL(abcABC):=T 1.889726e+02=T 90.00000=T Traj:=T positionsangstrom=T Step:=T 0=T Bead:=T pbc="F F F"
C      -45.47110000     -32.22030000     -68.81370000
C      -44.72940000     -31.35640000     -69.64560000
C      -45.40890000     -30.74950000     -70.73400000
C      -46.76390000     -30.97090000     -70.98720000
C      -47.50090000     -31.77940000     -70.09010000
C      -46.79290000     -32.36730000     -69.04530000
H      -44.94810000     -32.83840000     -68.07980000
H      -44.80290000     -30.00280000     -71.30520000
H      -48.48360000     -32.08020000     -70.33250000
H      -47.27930000     -33.04400000     -68.39770000
C      -47.54160000     -30.40060000     -72.19890000
H      -47.00350000     -29.47580000     -72.42330000
H      -48.56500000     -30.07960000     -71.95030000
C      -43.34050000     -30.99310000     -69.47850000
H      -42.98430000     -29.98150000     -69.85430000
H      -43.06320000     -30.88970000     -68.38830000
S      -47.59510000     -31.71430000     -73.54930000
S      -42.22400000     -32.29490000     -70.12220000
C      -45.90160000     -32.30690000     -73.82820000
H      -45.48030000     -31.75600000     -74.63990000
H      -45.39740000     -32.06570000     -72.90650000
C      -42.65640000     -32.33290000     -71.88510000
H      -41.89320000     -31.85740000     -72.58310000
H      -43.57070000     -31.79950000     -71.98200000
C      -42.85100000     -33.78860000     -72.51140000
H      -43.25000000     -33.74930000     -73.50950000
H      -41.77710000     -34.16180000     -72.48950000
C      -45.85280000     -33.74540000     -74.06070000
H      -44.85470000     -34.15070000     -74.44850000
H      -46.64650000     -33.98230000     -74.83510000
C      -46.04800000     -34.64100000     -72.87060000
C      -47.22540000     -35.28030000     -72.73150000
C      -45.00870000     -35.10420000     -71.92820000
H      -48.17450000     -34.98220000     -73.13660000
C      -45.54180000     -35.94750000     -71.00910000
C      -43.62440000     -34.72960000     -71.63740000
C      -43.20100000     -35.24870000     -70.43520000
S      -47.17560000     -36.38510000     -71.36500000
S      -44.41850000     -36.31480000     -69.72190000
H      -42.29780000     -35.03300000     -69.96900000
