40
Properties=species:S:1:pos:R:3 #=T CELL(abcABC):=T 1.889726e+02=T 90.00000=T Traj:=T positionsangstrom=T Step:=T 0=T Bead:=T pbc="F F F"
C      -45.42550000     -32.41310000     -69.11650000
C      -44.86900000     -31.40620000     -70.01310000
C      -45.68170000     -31.08990000     -71.11820000
C      -46.91140000     -31.67680000     -71.29370000
C      -47.46990000     -32.44820000     -70.26380000
C      -46.71170000     -32.86830000     -69.20690000
H      -44.87690000     -32.65000000     -68.23190000
H      -45.26170000     -30.40250000     -71.95810000
H      -48.41570000     -32.91660000     -70.49170000
H      -47.13270000     -33.56100000     -68.39020000
C      -47.80600000     -31.25830000     -72.35260000
H      -47.60830000     -30.25710000     -72.68170000
H      -48.89730000     -31.43350000     -72.13090000
C      -43.62940000     -30.73300000     -69.87400000
H      -43.61020000     -29.94790000     -70.63950000
H      -43.60260000     -30.31090000     -68.84620000
S      -47.72970000     -32.22380000     -73.95890000
S      -42.01210000     -31.89220000     -70.16550000
C      -45.93140000     -32.32400000     -74.25780000
H      -45.71970000     -31.92870000     -75.28010000
H      -45.41920000     -31.64230000     -73.59290000
C      -42.34420000     -32.49530000     -71.87630000
H      -41.43050000     -32.19850000     -72.53130000
H      -43.20250000     -32.01260000     -72.44690000
C      -42.40630000     -33.98930000     -72.03550000
H      -42.60090000     -34.09480000     -73.12800000
H      -41.40790000     -34.40810000     -71.92130000
C      -45.39690000     -33.79830000     -74.09710000
H      -44.27670000     -33.80540000     -74.27080000
H      -45.73940000     -34.31470000     -74.93000000
C      -45.70380000     -34.59500000     -72.85480000
C      -46.97150000     -35.08970000     -72.64560000
C      -44.88470000     -34.78530000     -71.62160000
H      -47.73570000     -35.09080000     -73.41670000
C      -45.69990000     -35.41700000     -70.62830000
C      -43.48280000     -34.62010000     -71.23110000
C      -43.28130000     -35.07420000     -69.96370000
S      -47.37310000     -35.78430000     -71.08050000
S      -44.65500000     -35.88600000     -69.24670000
H      -42.34590000     -35.06300000     -69.43190000
