40
Properties=species:S:1:pos:R:3 #=T CELL(abcABC):=T 1.889726e+02=T 90.00000=T Traj:=T positionsangstrom=T Step:=T 0=T Bead:=T pbc="F F F"
C      -45.48850000     -32.06000000     -68.93960000
C      -44.90270000     -31.22090000     -69.96130000
C      -45.61670000     -31.00960000     -71.12430000
C      -46.91370000     -31.51710000     -71.39020000
C      -47.40460000     -32.30400000     -70.37330000
C      -46.72030000     -32.69230000     -69.22580000
H      -44.87140000     -32.46150000     -68.12840000
H      -45.19440000     -30.47420000     -71.94120000
H      -48.43990000     -32.66250000     -70.44510000
H      -47.10530000     -33.37870000     -68.54280000
C      -47.56630000     -31.15920000     -72.64380000
H      -47.12990000     -30.17170000     -73.10250000
H      -48.60140000     -31.02980000     -72.45610000
C      -43.52920000     -30.66660000     -69.61650000
H      -43.46900000     -29.63490000     -70.07850000
H      -43.36630000     -30.54200000     -68.53400000
S      -47.50690000     -32.33100000     -74.05520000
S      -42.19090000     -31.87960000     -70.10170000
C      -45.66030000     -32.68280000     -74.22840000
H      -45.23530000     -32.23250000     -75.15120000
H      -45.19120000     -32.23700000     -73.37900000
C      -42.62410000     -32.37140000     -71.84790000
H      -41.84730000     -31.86120000     -72.45850000
H      -43.61060000     -31.93030000     -72.23660000
C      -42.55620000     -33.88290000     -72.05310000
H      -42.72250000     -34.17580000     -73.11880000
H      -41.49590000     -34.23920000     -71.74040000
C      -45.31660000     -34.18250000     -74.22130000
H      -44.25550000     -34.27830000     -74.41410000
H      -45.92230000     -34.76450000     -75.00620000
C      -45.72810000     -34.81330000     -72.90310000
C      -46.93210000     -35.46520000     -72.70760000
C      -44.95570000     -34.78430000     -71.65670000
H      -47.61760000     -35.67750000     -73.52040000
C      -45.72720000     -35.31890000     -70.61450000
C      -43.59310000     -34.56750000     -71.17200000
C      -43.34420000     -34.99850000     -69.90160000
S      -47.29000000     -36.00240000     -71.11750000
S      -44.81710000     -35.69860000     -69.15140000
H      -42.43300000     -34.88430000     -69.33180000
