40
Properties=species:S:1:pos:R:3 #=T CELL(abcABC):=T 1.889726e+02=T 90.00000=T Traj:=T positionsangstrom=T Step:=T 0=T Bead:=T pbc="F F F"
C      -45.47490000     -32.16260000     -68.97310000
C      -44.92520000     -31.28480000     -69.97870000
C      -45.65420000     -31.13560000     -71.18080000
C      -46.89180000     -31.64560000     -71.28460000
C      -47.40140000     -32.45680000     -70.24330000
C      -46.69450000     -32.78150000     -69.14380000
H      -44.88740000     -32.31920000     -68.07400000
H      -45.39090000     -30.36330000     -71.91360000
H      -48.44460000     -32.74730000     -70.35630000
H      -47.07190000     -33.44220000     -68.36820000
C      -47.69790000     -31.17780000     -72.49140000
H      -47.51220000     -30.11140000     -72.69530000
H      -48.70680000     -31.15380000     -72.11490000
C      -43.50050000     -30.79010000     -69.78740000
H      -43.30760000     -29.93940000     -70.44620000
H      -43.22630000     -30.39550000     -68.81790000
S      -47.64260000     -32.27910000     -74.06860000
S      -42.01940000     -31.92760000     -70.13650000
C      -45.82300000     -32.56210000     -74.29890000
H      -45.50050000     -32.21690000     -75.25090000
H      -45.33800000     -31.96060000     -73.48070000
C      -42.35970000     -32.30100000     -71.98620000
H      -41.54040000     -31.88340000     -72.51660000
H      -43.28000000     -31.89380000     -72.16250000
C      -42.48040000     -33.87280000     -72.08150000
H      -42.76210000     -34.10730000     -73.05580000
H      -41.51950000     -34.35740000     -71.81340000
C      -45.33280000     -34.02330000     -74.12950000
H      -44.25980000     -33.95710000     -74.18990000
H      -45.77310000     -34.62880000     -74.97480000
C      -45.75840000     -34.69430000     -72.84270000
C      -47.09010000     -35.05130000     -72.63800000
C      -44.90160000     -34.94040000     -71.68650000
H      -47.92460000     -34.85310000     -73.23220000
C      -45.70040000     -35.54190000     -70.68410000
C      -43.59230000     -34.62470000     -71.20020000
C      -43.34470000     -34.88430000     -69.87270000
S      -47.31370000     -35.95060000     -71.06160000
S      -44.80260000     -35.71140000     -69.21320000
H      -42.37870000     -34.88760000     -69.33110000
