40
Properties=species:S:1:pos:R:3 #=T CELL(abcABC):=T 1.889726e+02=T 90.00000=T Traj:=T positionsangstrom=T Step:=T 0=T Bead:=T pbc="F F F"
C      -42.86850000     -31.29860000     -71.14130000
C      -43.99660000     -30.68440000     -70.53190000
C      -45.10840000     -30.33500000     -71.28190000
C      -45.04110000     -30.59440000     -72.67770000
C      -43.94930000     -31.15690000     -73.33760000
C      -42.88640000     -31.56510000     -72.51010000
H      -42.08200000     -31.69180000     -70.51700000
H      -45.96120000     -29.82010000     -70.84150000
H      -43.91290000     -31.31790000     -74.42650000
H      -42.05350000     -32.17900000     -72.83260000
C      -46.31720000     -30.28100000     -73.48250000
H      -46.03810000     -29.78540000     -74.42180000
H      -46.99400000     -29.63300000     -72.84240000
C      -43.76940000     -30.22330000     -69.07900000
H      -42.68520000     -30.01140000     -68.99250000
H      -44.28610000     -29.33410000     -68.77900000
S      -47.21990000     -31.83480000     -73.94220000
S      -44.47460000     -31.55210000     -67.93960000
C      -48.13360000     -32.45440000     -72.39150000
H      -48.65030000     -31.60130000     -71.87950000
H      -48.98190000     -33.03660000     -72.69190000
C      -44.15390000     -33.14010000     -68.77980000
H      -43.32670000     -33.65840000     -68.39610000
H      -43.91460000     -32.91500000     -69.78980000
C      -45.34980000     -34.05290000     -68.67780000
H      -45.26290000     -34.59410000     -67.77890000
H      -46.29510000     -33.49250000     -68.65890000
C      -47.32860000     -33.23420000     -71.36010000
H      -48.10800000     -33.24220000     -70.54050000
H      -46.38110000     -32.71280000     -71.05930000
C      -46.83350000     -34.60830000     -71.79150000
C      -47.02690000     -35.21550000     -72.98260000
C      -45.85500000     -35.33450000     -71.00190000
H      -47.59500000     -34.78020000     -73.81890000
C      -45.37540000     -36.45510000     -71.67490000
C      -45.22250000     -35.18300000     -69.70620000
C      -44.28920000     -36.19160000     -69.49930000
S      -46.12280000     -36.77150000     -73.25370000
S      -44.13910000     -37.33590000     -70.82090000
H      -43.95840000     -36.44100000     -68.48340000
