40
Properties=species:S:1:pos:R:3 #=T CELL(abcABC):=T 1.889726e+02=T 90.00000=T Traj:=T positionsangstrom=T Step:=T 0=T Bead:=T pbc="F F F"
C      -44.67700000     -33.31070000     -68.84640000
C      -44.22950000     -32.13120000     -69.40820000
C      -45.22330000     -31.29570000     -70.01530000
C      -46.51420000     -31.80330000     -70.21910000
C      -46.92610000     -32.99970000     -69.63590000
C      -46.02700000     -33.72720000     -68.88090000
H      -43.87620000     -33.94890000     -68.40500000
H      -44.97920000     -30.23880000     -70.31870000
H      -48.01910000     -33.30680000     -69.74030000
H      -46.25740000     -34.59700000     -68.20870000
C      -47.58290000     -30.89010000     -70.89340000
H      -47.28920000     -29.86600000     -70.79250000
H      -48.54570000     -30.90200000     -70.28980000
C      -42.81360000     -31.65930000     -69.46100000
H      -42.69890000     -30.63030000     -69.49270000
H      -42.14400000     -31.99950000     -68.66270000
S      -48.06770000     -31.29540000     -72.61160000
S      -41.70590000     -32.29760000     -70.87200000
C      -46.52370000     -31.56650000     -73.52950000
H      -46.57270000     -30.92390000     -74.39510000
H      -45.60760000     -31.24090000     -72.98010000
C      -42.75890000     -32.08860000     -72.39440000
H      -42.29540000     -31.42960000     -73.10000000
H      -43.71980000     -31.64620000     -72.11180000
C      -43.14250000     -33.40510000     -72.99360000
H      -43.77970000     -33.05050000     -73.81310000
H      -42.27730000     -33.95810000     -73.48480000
C      -46.34870000     -33.04220000     -74.00980000
H      -45.44960000     -33.17320000     -74.65110000
H      -47.15700000     -33.22520000     -74.63010000
C      -46.38010000     -34.04900000     -72.91480000
C      -47.63310000     -34.52820000     -72.52380000
C      -45.30480000     -34.57520000     -72.13170000
H      -48.65060000     -34.36190000     -72.95020000
C      -45.70180000     -35.60160000     -71.29580000
C      -43.89320000     -34.31500000     -72.10590000
C      -43.27350000     -35.29700000     -71.35300000
S      -47.42840000     -35.74840000     -71.24690000
S      -44.36930000     -36.43860000     -70.56990000
H      -42.16080000     -35.31390000     -71.19260000
