40
Properties=species:S:1:pos:R:3 #=T CELL(abcABC):=T 1.889726e+02=T 90.00000=T Traj:=T positionsangstrom=T Step:=T 0=T Bead:=T pbc="F F F"
C      -42.84750000     -31.38830000     -71.23230000
C      -43.83320000     -30.66880000     -70.49400000
C      -44.96030000     -30.19600000     -71.13710000
C      -45.08760000     -30.40590000     -72.53490000
C      -44.16650000     -31.09350000     -73.28020000
C      -42.95910000     -31.45300000     -72.64640000
H      -41.90660000     -31.74270000     -70.81010000
H      -45.73790000     -29.75670000     -70.49050000
H      -44.40220000     -31.42860000     -74.32350000
H      -42.14880000     -31.87660000     -73.19540000
C      -46.44320000     -30.16410000     -73.13710000
H      -46.40070000     -29.42940000     -73.96860000
H      -47.14450000     -29.79280000     -72.44810000
C      -43.73350000     -30.42730000     -69.00040000
H      -42.73910000     -30.31030000     -68.59310000
H      -44.21740000     -29.42360000     -68.80810000
S      -47.17000000     -31.64280000     -74.01430000
S      -44.64580000     -31.54320000     -67.82580000
C      -48.10650000     -32.46350000     -72.61690000
H      -48.65710000     -31.66540000     -72.12930000
H      -48.75910000     -33.26100000     -73.01000000
C      -44.29930000     -33.27510000     -68.43500000
H      -43.65450000     -33.86680000     -67.80890000
H      -43.72010000     -33.09150000     -69.39800000
C      -45.55480000     -33.96750000     -68.92070000
H      -46.24390000     -34.19790000     -68.05680000
H      -46.11190000     -33.25220000     -69.57730000
C      -47.19000000     -33.22340000     -71.58160000
H      -47.76980000     -33.46940000     -70.66300000
H      -46.31460000     -32.65020000     -71.31130000
C      -46.68730000     -34.63500000     -71.98090000
C      -46.80860000     -35.27930000     -73.18340000
C      -45.73900000     -35.34120000     -71.12940000
H      -47.54050000     -35.07330000     -73.96450000
C      -45.28650000     -36.56570000     -71.69120000
C      -45.23510000     -35.15700000     -69.81580000
C      -44.32110000     -36.15170000     -69.50100000
S      -45.99420000     -36.91010000     -73.23910000
S      -44.21560000     -37.44610000     -70.71050000
H      -43.75390000     -36.24320000     -68.60480000
