40
Properties=species:S:1:pos:R:3 #=T CELL(abcABC):=T 1.889726e+02=T 90.00000=T Traj:=T positionsangstrom=T Step:=T 0=T Bead:=T pbc="F F F"
C      -42.13520000     -32.80650000     -72.93220000
C      -43.05830000     -32.25440000     -72.00920000
C      -43.10170000     -32.78300000     -70.74740000
C      -42.13640000     -33.68150000     -70.29510000
C      -41.07980000     -33.99440000     -71.13450000
C      -41.10400000     -33.59030000     -72.51640000
H      -42.24230000     -32.53800000     -73.97830000
H      -43.82590000     -32.52290000     -70.01330000
H      -40.36400000     -34.74100000     -70.91440000
H      -40.34160000     -33.99520000     -73.14600000
C      -42.03380000     -34.11420000     -68.86220000
H      -42.52300000     -33.41150000     -68.24840000
H      -41.00030000     -34.37600000     -68.49610000
C      -44.00150000     -31.17180000     -72.48380000
H      -44.79260000     -31.00900000     -71.71970000
H      -43.51860000     -30.19390000     -72.48360000
S      -43.11920000     -35.61290000     -68.62820000
S      -44.78850000     -31.29390000     -74.10600000
C      -44.78410000     -34.89670000     -68.69850000
H      -45.39450000     -35.36120000     -67.92830000
H      -44.87260000     -33.83870000     -68.43930000
C      -45.15470000     -33.13010000     -74.54430000
H      -44.36640000     -33.70430000     -74.92720000
H      -45.95670000     -33.06660000     -75.30350000
C      -45.62520000     -33.85610000     -73.32140000
H      -45.88140000     -34.87530000     -73.63630000
H      -44.86160000     -33.89380000     -72.49190000
C      -45.36340000     -35.15980000     -70.11500000
H      -45.46850000     -36.27080000     -70.24540000
H      -44.63180000     -34.94610000     -70.88700000
C      -46.71090000     -34.49040000     -70.23360000
C      -47.47390000     -34.44840000     -69.07270000
C      -47.29290000     -33.72170000     -71.35780000
H      -47.17900000     -34.92000000     -68.13790000
C      -48.55450000     -33.13810000     -71.00820000
C      -46.89430000     -33.32190000     -72.70290000
C      -47.79070000     -32.54900000     -73.31520000
S      -48.92310000     -33.41510000     -69.30610000
S      -49.25040000     -32.20960000     -72.35750000
H      -47.78840000     -32.19100000     -74.30860000
