40
Properties=species:S:1:pos:R:3 #=T CELL(abcABC):=T 1.889726e+02=T 90.00000=T Traj:=T positionsangstrom=T Step:=T 0=T Bead:=T pbc="F F F"
C      -45.91270000     -33.44490000     -67.05050000
C      -44.68340000     -33.12770000     -67.72490000
C      -44.51020000     -31.92350000     -68.39230000
C      -45.60640000     -31.03850000     -68.52250000
C      -46.84140000     -31.36120000     -67.92220000
C      -46.91410000     -32.50530000     -67.06390000
H      -45.95670000     -34.32580000     -66.48440000
H      -43.61500000     -31.59460000     -68.86730000
H      -47.62880000     -30.65820000     -67.96240000
H      -47.76420000     -32.65730000     -66.40280000
C      -45.55080000     -29.85330000     -69.44100000
H      -44.58590000     -29.49300000     -69.54830000
H      -46.34880000     -29.09520000     -69.16970000
C      -43.52970000     -34.20230000     -67.74470000
H      -42.86550000     -34.11160000     -66.86980000
H      -44.10780000     -35.18340000     -67.53680000
S      -46.08420000     -30.54790000     -71.16780000
S      -42.52690000     -34.26530000     -69.26310000
C      -44.57430000     -31.53410000     -71.76230000
H      -43.65330000     -30.88330000     -71.62910000
H      -44.53830000     -32.53220000     -71.26280000
C      -43.86030000     -34.76180000     -70.38920000
H      -44.72630000     -34.16530000     -70.05590000
H      -44.29000000     -35.69010000     -70.15850000
C      -43.41900000     -34.61420000     -71.86880000
H      -42.91610000     -33.67070000     -72.00960000
H      -42.68170000     -35.43500000     -71.89990000
C      -44.68180000     -31.71780000     -73.34550000
H      -43.62760000     -32.02160000     -73.62280000
H      -44.85940000     -30.69740000     -73.79760000
C      -45.59150000     -32.82390000     -73.86870000
C      -46.78910000     -32.55970000     -74.55330000
C      -45.35090000     -34.22670000     -73.64120000
H      -47.17590000     -31.51570000     -74.66630000
C      -46.38150000     -35.02120000     -74.24930000
C      -44.44880000     -35.06380000     -72.83590000
C      -44.74340000     -36.41060000     -72.98240000
S      -47.58260000     -34.03690000     -75.09920000
S      -46.14920000     -36.74100000     -74.01560000
H      -44.23270000     -37.22610000     -72.48680000
