40
Properties=species:S:1:pos:R:3 #=T CELL(abcABC):=T 1.889726e+02=T 90.00000=T Traj:=T positionsangstrom=T Step:=T 0=T Bead:=T pbc="F F F"
C      -49.23720000     -32.94580000     -71.32380000
C      -47.88190000     -32.71760000     -71.30140000
C      -47.00080000     -33.78290000     -71.02650000
C      -47.42820000     -35.09350000     -70.88700000
C      -48.87080000     -35.33120000     -70.97460000
C      -49.75460000     -34.24700000     -71.21180000
H      -49.91520000     -32.12690000     -71.60780000
H      -45.99740000     -33.54690000     -70.93190000
H      -49.19270000     -36.40710000     -71.03850000
H      -50.85900000     -34.49550000     -71.31600000
C      -46.48570000     -36.18210000     -70.66900000
H      -46.92890000     -37.03610000     -70.14230000
H      -45.60610000     -35.88800000     -69.99750000
C      -47.33530000     -31.31050000     -71.44090000
H      -47.92560000     -30.53250000     -71.00720000
H      -46.32850000     -31.17090000     -70.90790000
S      -45.74660000     -36.87030000     -72.26560000
S      -46.94020000     -30.89370000     -73.28460000
C      -44.62130000     -35.59660000     -73.07280000
H      -44.41210000     -36.20810000     -73.93510000
H      -45.20780000     -34.73560000     -73.42370000
C      -45.59430000     -32.12200000     -73.70550000
H      -45.58680000     -32.34050000     -74.79250000
H      -45.83410000     -33.09350000     -73.18790000
C      -44.11020000     -31.86640000     -73.30000000
H      -43.59010000     -32.82010000     -73.67260000
H      -43.63790000     -30.97890000     -73.79170000
C      -43.22820000     -35.08180000     -72.56040000
H      -42.90730000     -34.45890000     -73.38780000
H      -42.63400000     -36.04190000     -72.43900000
C      -43.17170000     -34.29070000     -71.19210000
C      -42.82750000     -35.00300000     -70.05100000
C      -43.35730000     -32.86320000     -70.99900000
H      -42.65400000     -36.09580000     -70.03500000
C      -43.09080000     -32.50720000     -69.70280000
C      -43.89910000     -31.73380000     -71.77430000
C      -43.87110000     -30.61640000     -71.08450000
S      -42.66350000     -33.82960000     -68.71390000
S      -43.29190000     -30.81250000     -69.41570000
H      -44.27120000     -29.68380000     -71.49020000
