40
Properties=species:S:1:pos:R:3 #=T CELL(abcABC):=T 1.889726e+02=T 90.00000=T Traj:=T positionsangstrom=T Step:=T 0=T Bead:=T pbc="F F F"
C      -43.83820000     -32.83370000     -68.81990000
C      -43.64630000     -31.60640000     -69.43210000
C      -44.75220000     -30.79630000     -69.79030000
C      -46.11170000     -31.27680000     -69.56550000
C      -46.30890000     -32.49070000     -68.96530000
C      -45.16140000     -33.29990000     -68.50040000
H      -43.08110000     -33.50710000     -68.46280000
H      -44.59280000     -29.76320000     -70.15790000
H      -47.22040000     -33.07120000     -68.80240000
H      -45.23320000     -34.27710000     -68.10510000
C      -47.19530000     -30.46420000     -70.27030000
H      -46.64930000     -29.65190000     -70.78040000
H      -47.98070000     -29.92380000     -69.67670000
C      -42.30130000     -31.33190000     -69.94880000
H      -42.16290000     -30.24850000     -70.26110000
H      -41.56380000     -31.54460000     -69.16150000
S      -48.11580000     -31.48570000     -71.48660000
S      -41.92570000     -32.50380000     -71.37910000
C      -47.04260000     -31.46130000     -72.97930000
H      -47.32560000     -30.70530000     -73.78820000
H      -46.02080000     -31.08460000     -72.71480000
C      -43.36780000     -32.23810000     -72.56060000
H      -43.19050000     -31.35570000     -73.21170000
H      -44.28500000     -32.15570000     -71.91790000
C      -43.57590000     -33.44100000     -73.54000000
H      -44.25220000     -33.16270000     -74.38500000
H      -42.57980000     -33.75760000     -74.01450000
C      -47.03920000     -32.87520000     -73.70180000
H      -46.34590000     -32.79270000     -74.53880000
H      -47.95670000     -33.07550000     -74.17520000
C      -46.85370000     -34.09150000     -72.79870000
C      -47.91260000     -34.73080000     -72.23150000
C      -45.61460000     -34.71430000     -72.46530000
H      -48.84830000     -34.26910000     -72.16300000
C      -45.78870000     -35.80750000     -71.60990000
C      -44.18290000     -34.62310000     -72.81380000
C      -43.45160000     -35.61720000     -72.28030000
S      -47.47660000     -36.09920000     -71.23840000
S      -44.35010000     -36.77430000     -71.33700000
H      -42.38010000     -35.81780000     -72.46110000
