40
Properties=species:S:1:pos:R:3 #=T CELL(abcABC):=T 1.889726e+02=T 90.00000=T Traj:=T positionsangstrom=T Step:=T 0=T Bead:=T pbc="F F F"
C      -44.96430000     -33.14990000     -75.99610000
C      -44.43980000     -33.26280000     -74.72390000
C      -44.47470000     -32.24670000     -73.75380000
C      -45.06140000     -31.02490000     -74.08030000
C      -45.51560000     -30.92540000     -75.39710000
C      -45.49280000     -31.94110000     -76.34710000
H      -44.96670000     -33.98850000     -76.68960000
H      -43.88540000     -32.41150000     -72.87490000
H      -45.95610000     -29.92450000     -75.69910000
H      -45.81320000     -31.72450000     -77.33230000
C      -45.05770000     -29.81280000     -73.17370000
H      -46.11100000     -29.64590000     -72.85900000
H      -44.76130000     -28.93000000     -73.71990000
C      -43.74200000     -34.64460000     -74.34970000
H      -43.12440000     -35.07200000     -75.16110000
H      -43.01960000     -34.48970000     -73.56740000
S      -44.07030000     -29.86730000     -71.62170000
S      -45.05220000     -35.81670000     -73.94960000
C      -45.17120000     -30.59720000     -70.29630000
H      -44.72520000     -30.34520000     -69.31030000
H      -46.18290000     -30.15400000     -70.28520000
C      -45.60110000     -35.20460000     -72.35600000
H      -46.52440000     -35.64030000     -72.08690000
H      -45.79460000     -34.13110000     -72.52970000
C      -44.55930000     -35.40910000     -71.22070000
H      -43.90830000     -36.32950000     -71.42210000
H      -43.91150000     -34.59840000     -71.31050000
C      -45.22680000     -32.09950000     -70.40580000
H      -44.27310000     -32.57500000     -70.36390000
H      -45.73510000     -32.29950000     -71.43470000
C      -45.95240000     -32.80140000     -69.27490000
C      -46.67610000     -32.30670000     -68.25720000
C      -45.66390000     -34.23480000     -69.09250000
H      -47.12340000     -31.32830000     -68.11660000
C      -46.15990000     -34.64130000     -67.88980000
C      -45.06210000     -35.41400000     -69.80200000
C      -45.15880000     -36.57260000     -69.06970000
S      -46.98620000     -33.48390000     -66.97560000
S      -45.85520000     -36.37820000     -67.46670000
H      -44.77670000     -37.61940000     -69.23770000
