40
Properties=species:S:1:pos:R:3 #=T CELL(abcABC):=T 1.889726e+02=T 90.00000=T Traj:=T positionsangstrom=T Step:=T 0=T Bead:=T pbc="F F F"
C      -43.51260000     -33.30270000     -69.57250000
C      -43.40850000     -32.05710000     -70.15210000
C      -44.56610000     -31.21740000     -70.05440000
C      -45.69220000     -31.62120000     -69.31820000
C      -45.68250000     -32.82410000     -68.60840000
C      -44.64090000     -33.66930000     -68.83050000
H      -42.67500000     -34.05360000     -69.65030000
H      -44.56730000     -30.21120000     -70.55390000
H      -46.54690000     -33.26810000     -68.09570000
H      -44.62520000     -34.58730000     -68.40580000
C      -46.92120000     -30.76770000     -69.30400000
H      -46.62210000     -29.73670000     -69.39680000
H      -47.51350000     -30.87850000     -68.46120000
C      -42.21970000     -31.57080000     -70.92070000
H      -42.19180000     -30.47750000     -71.04290000
H      -41.32850000     -31.97430000     -70.36260000
S      -48.18460000     -31.11750000     -70.57260000
S      -42.06870000     -32.38540000     -72.63710000
C      -47.38560000     -31.35120000     -72.21230000
H      -47.77410000     -30.58680000     -72.86200000
H      -46.30050000     -31.26550000     -72.09110000
C      -43.73450000     -32.02650000     -73.30020000
H      -43.89720000     -31.05940000     -73.88260000
H      -44.38540000     -31.81250000     -72.46340000
C      -44.36620000     -33.27860000     -74.06880000
H      -45.21780000     -32.89070000     -74.63220000
H      -43.58750000     -33.63130000     -74.73650000
C      -47.68170000     -32.73630000     -72.71980000
H      -47.34870000     -32.76780000     -73.81070000
H      -48.75730000     -32.85130000     -72.78690000
C      -47.15250000     -34.00500000     -72.01430000
C      -47.85350000     -34.66510000     -71.02000000
C      -45.87340000     -34.62060000     -72.32870000
H      -48.88150000     -34.50630000     -70.81910000
C      -45.70470000     -35.75850000     -71.58390000
C      -44.67840000     -34.41540000     -73.16130000
C      -43.73770000     -35.32830000     -72.98470000
S      -47.03070000     -36.09030000     -70.42950000
S      -44.23270000     -36.65280000     -71.88940000
H      -42.68500000     -35.17620000     -73.36240000
