40
Properties=species:S:1:pos:R:3 #=T CELL(abcABC):=T 1.889726e+02=T 90.00000=T Traj:=T positionsangstrom=T Step:=T 0=T Bead:=T pbc="F F F"
C      -44.13390000     -32.93410000     -76.17180000
C      -43.87610000     -33.23070000     -74.81390000
C      -44.27080000     -32.31640000     -73.86680000
C      -45.02120000     -31.12670000     -74.14410000
C      -45.43920000     -30.93470000     -75.51380000
C      -44.92120000     -31.84710000     -76.50020000
H      -43.74130000     -33.43620000     -77.02350000
H      -43.91920000     -32.40210000     -72.81890000
H      -45.91530000     -30.04060000     -75.77660000
H      -45.07530000     -31.64700000     -77.56470000
C      -45.44540000     -30.07770000     -73.12370000
H      -46.50860000     -30.28800000     -72.77350000
H      -45.65450000     -29.13070000     -73.55730000
C      -43.28970000     -34.53180000     -74.38260000
H      -42.81910000     -34.98000000     -75.26590000
H      -42.68290000     -34.51300000     -73.51420000
S      -44.37490000     -29.78610000     -71.62160000
S      -44.67370000     -35.76390000     -73.92000000
C      -45.17460000     -30.68860000     -70.14290000
H      -44.34560000     -30.71840000     -69.45420000
H      -45.98620000     -30.15710000     -69.72540000
C      -45.31020000     -35.34730000     -72.23000000
H      -45.97460000     -36.16140000     -72.04760000
H      -45.86800000     -34.41250000     -72.32950000
C      -44.41690000     -35.25290000     -70.97280000
H      -43.65080000     -35.97260000     -71.07020000
H      -43.84080000     -34.38340000     -70.87440000
C      -45.44450000     -32.16450000     -70.45790000
H      -44.41290000     -32.57380000     -70.66400000
H      -46.02840000     -32.25490000     -71.37470000
C      -46.02790000     -32.85360000     -69.28840000
C      -46.70320000     -32.22190000     -68.28090000
C      -45.88290000     -34.30160000     -69.04850000
H      -47.12150000     -31.27130000     -68.28860000
C      -46.51110000     -34.73120000     -67.84960000
C      -45.21270000     -35.42750000     -69.67550000
C      -45.38240000     -36.66790000     -68.99640000
S      -47.22790000     -33.38120000     -66.95060000
S      -46.32610000     -36.45730000     -67.54920000
H      -44.79360000     -37.50500000     -69.31610000
