40
Properties=species:S:1:pos:R:3 #=T CELL(abcABC):=T 1.889726e+02=T 90.00000=T Traj:=T positionsangstrom=T Step:=T 0=T Bead:=T pbc="F F F"
C      -44.39690000     -32.87310000     -76.02580000
C      -44.05370000     -33.09330000     -74.72280000
C      -44.32010000     -32.14320000     -73.77810000
C      -44.91970000     -30.96200000     -74.14700000
C      -45.14350000     -30.58800000     -75.52990000
C      -44.91540000     -31.69780000     -76.44770000
H      -44.31230000     -33.70030000     -76.73400000
H      -44.05420000     -32.39710000     -72.79200000
H      -45.65130000     -29.65040000     -75.73610000
H      -45.21880000     -31.53650000     -77.49760000
C      -45.46760000     -30.00010000     -73.00140000
H      -46.52270000     -30.30080000     -72.64800000
H      -45.47640000     -29.02320000     -73.42330000
C      -43.31620000     -34.36010000     -74.25770000
H      -42.57050000     -34.68930000     -75.06980000
H      -42.65950000     -34.23100000     -73.37380000
S      -44.30000000     -30.00980000     -71.64630000
S      -44.42380000     -35.85200000     -73.95520000
C      -45.43080000     -30.59230000     -70.41620000
H      -45.24280000     -30.07980000     -69.43200000
H      -46.46350000     -30.23090000     -70.67200000
C      -45.43020000     -35.50590000     -72.43200000
H      -46.40310000     -36.05430000     -72.40960000
H      -45.80270000     -34.49780000     -72.51410000
C      -44.59330000     -35.61690000     -71.10950000
H      -43.93490000     -36.56490000     -71.12000000
H      -43.98580000     -34.67350000     -71.09470000
C      -45.35610000     -32.12310000     -70.40170000
H      -44.34580000     -32.51560000     -70.49550000
H      -45.84420000     -32.52860000     -71.26750000
C      -46.00100000     -32.89490000     -69.24070000
C      -46.62000000     -32.29140000     -68.18340000
C      -45.83440000     -34.31450000     -69.04390000
H      -46.81590000     -31.30700000     -68.02770000
C      -46.50090000     -34.72360000     -67.87860000
C      -45.42730000     -35.52960000     -69.83180000
C      -45.51030000     -36.66710000     -69.02090000
S      -47.14640000     -33.41040000     -66.92140000
S      -46.37160000     -36.37610000     -67.50820000
H      -45.29350000     -37.70440000     -69.34030000
