40
Properties=species:S:1:pos:R:3 #=T CELL(abcABC):=T 1.889726e+02=T 90.00000=T Traj:=T positionsangstrom=T Step:=T 0=T Bead:=T pbc="F F F"
C      -42.60910000     -34.20230000     -71.09110000
C      -42.75440000     -33.02040000     -71.79920000
C      -43.26960000     -31.92610000     -71.04310000
C      -43.77110000     -31.93160000     -69.77970000
C      -43.75110000     -33.20040000     -69.18490000
C      -43.15660000     -34.30670000     -69.80220000
H      -42.16330000     -35.10550000     -71.50300000
H      -43.35390000     -30.95760000     -71.63890000
H      -44.19680000     -33.38710000     -68.22760000
H      -43.09880000     -35.27710000     -69.27010000
C      -44.34760000     -30.75350000     -69.06950000
H      -43.93650000     -29.82090000     -69.47520000
H      -44.01080000     -30.82140000     -68.03110000
C      -42.26890000     -32.80450000     -73.25110000
H      -42.13800000     -31.75650000     -73.52100000
H      -41.41460000     -33.48680000     -73.51950000
S      -46.21400000     -30.73480000     -69.11270000
S      -43.55520000     -33.56560000     -74.43280000
C      -46.70280000     -30.55620000     -70.86360000
H      -47.06100000     -29.61150000     -71.06700000
H      -45.77900000     -30.68110000     -71.54120000
C      -44.98440000     -32.46380000     -74.13720000
H      -44.99710000     -31.49290000     -74.79100000
H      -44.80770000     -32.08430000     -73.17270000
C      -46.27220000     -33.25050000     -74.11480000
H      -47.12460000     -32.50480000     -73.94140000
H      -46.55250000     -33.82400000     -75.00740000
C      -47.77600000     -31.65460000     -71.24820000
H      -48.05440000     -31.56990000     -72.38700000
H      -48.67980000     -31.35370000     -70.73550000
C      -47.35890000     -33.08040000     -70.84840000
C      -47.63080000     -33.47060000     -69.53010000
C      -46.70360000     -34.10370000     -71.60440000
H      -48.07740000     -32.89600000     -68.79760000
C      -46.55150000     -35.28810000     -70.86340000
C      -46.19720000     -34.22230000     -72.95400000
C      -45.70630000     -35.49360000     -73.20570000
S      -47.25660000     -35.19300000     -69.26650000
S      -45.74150000     -36.53690000     -71.77280000
H      -45.41900000     -35.84920000     -74.17020000
