40
Properties=species:S:1:pos:R:3 #=T CELL(abcABC):=T 1.889726e+02=T 90.00000=T Traj:=T positionsangstrom=T Step:=T 0=T Bead:=T pbc="F F F"
C      -43.06870000     -33.78530000     -70.43830000
C      -43.00070000     -32.47170000     -70.96840000
C      -43.79080000     -31.42020000     -70.40510000
C      -44.60050000     -31.67360000     -69.31160000
C      -44.57560000     -32.92260000     -68.74580000
C      -43.88880000     -34.00160000     -69.27320000
H      -42.48740000     -34.58790000     -70.81510000
H      -43.73930000     -30.42590000     -70.90570000
H      -45.20660000     -33.10730000     -67.82410000
H      -43.99300000     -34.90370000     -68.64500000
C      -45.49340000     -30.62450000     -68.73860000
H      -45.17050000     -29.63380000     -68.97170000
H      -45.56820000     -30.66070000     -67.66640000
C      -42.10060000     -32.12610000     -72.15540000
H      -41.63000000     -31.11680000     -72.04290000
H      -41.22030000     -32.76190000     -72.06430000
S      -47.18010000     -31.05510000     -69.32660000
S      -42.68430000     -32.58840000     -73.85930000
C      -47.06850000     -31.24030000     -71.13350000
H      -47.41430000     -30.30350000     -71.52460000
H      -45.92840000     -31.32700000     -71.34400000
C      -44.38560000     -31.96790000     -73.92950000
H      -44.52460000     -31.19830000     -74.73630000
H      -44.69050000     -31.55980000     -72.94480000
C      -45.37490000     -33.11680000     -74.20230000
H      -46.30710000     -32.67530000     -74.54270000
H      -45.09490000     -33.59280000     -75.15270000
C      -47.92620000     -32.30030000     -71.69260000
H      -47.99760000     -32.15570000     -72.81560000
H      -48.91910000     -32.16140000     -71.39900000
C      -47.48560000     -33.69420000     -71.33420000
C      -48.04370000     -34.37930000     -70.31000000
C      -46.37140000     -34.45670000     -72.01220000
H      -48.79670000     -34.14510000     -69.65510000
C      -46.15020000     -35.63880000     -71.34540000
C      -45.48960000     -34.22690000     -73.13440000
C      -44.64940000     -35.30600000     -73.30350000
S      -47.28840000     -35.94440000     -70.04270000
S      -44.94440000     -36.60770000     -72.20610000
H      -43.80910000     -35.39090000     -74.02350000
