40
Properties=species:S:1:pos:R:3 #=T CELL(abcABC):=T 1.889726e+02=T 90.00000=T Traj:=T positionsangstrom=T Step:=T 0=T Bead:=T pbc="F F F"
C      -42.92060000     -34.33240000     -71.09420000
C      -42.84070000     -33.01380000     -71.60990000
C      -43.54400000     -31.98500000     -71.01750000
C      -44.09150000     -32.16230000     -69.74070000
C      -44.20060000     -33.43780000     -69.22510000
C      -43.56190000     -34.50180000     -69.86240000
H      -42.37190000     -34.99100000     -71.72210000
H      -43.44630000     -30.96160000     -71.42360000
H      -44.80040000     -33.47230000     -68.26390000
H      -43.61100000     -35.48490000     -69.33080000
C      -44.63140000     -31.01990000     -68.90650000
H      -44.21550000     -30.12170000     -69.35270000
H      -44.52280000     -31.06750000     -67.83090000
C      -42.03510000     -32.65740000     -72.80410000
H      -41.59100000     -31.69360000     -72.79790000
H      -41.21790000     -33.43260000     -72.80980000
S      -46.47790000     -30.65890000     -69.12030000
S      -43.10400000     -32.96750000     -74.30590000
C      -46.81200000     -30.67090000     -70.99200000
H      -47.09570000     -29.61860000     -71.20110000
H      -45.80210000     -30.84710000     -71.46470000
C      -44.75920000     -32.24560000     -73.90080000
H      -44.84910000     -31.40470000     -74.70590000
H      -44.78710000     -31.58820000     -73.02260000
C      -45.84140000     -33.27620000     -74.00480000
H      -46.79150000     -32.76000000     -74.08830000
H      -45.70310000     -33.82320000     -74.89080000
C      -47.75970000     -31.75100000     -71.56230000
H      -47.82090000     -31.62550000     -72.67010000
H      -48.77480000     -31.61340000     -71.30910000
C      -47.39830000     -33.15560000     -71.08280000
C      -47.96550000     -33.65500000     -69.91900000
C      -46.61890000     -34.20730000     -71.76720000
H      -48.71640000     -33.15620000     -69.16960000
C      -46.54430000     -35.40620000     -70.98020000
C      -45.83450000     -34.28290000     -72.93960000
C      -45.04390000     -35.40800000     -72.97610000
S      -47.63160000     -35.36540000     -69.57460000
S      -45.35060000     -36.47680000     -71.62090000
H      -44.16230000     -35.52840000     -73.63140000
