40
Properties=species:S:1:pos:R:3 #=T CELL(abcABC):=T 1.889726e+02=T 90.00000=T Traj:=T positionsangstrom=T Step:=T 0=T Bead:=T pbc="F F F"
C      -42.85700000     -34.22090000     -71.22700000
C      -42.91400000     -32.95450000     -71.77630000
C      -43.46510000     -31.95920000     -70.98430000
C      -43.92360000     -32.08490000     -69.66120000
C      -43.77240000     -33.34940000     -69.10290000
C      -43.27720000     -34.39920000     -69.91260000
H      -42.36350000     -35.02960000     -71.79440000
H      -43.48510000     -30.88960000     -71.31150000
H      -43.76600000     -33.51460000     -68.05040000
H      -43.21150000     -35.40010000     -69.47870000
C      -44.46140000     -30.85880000     -68.95550000
H      -44.12480000     -29.91400000     -69.41020000
H      -44.14760000     -30.99920000     -67.91960000
C      -42.17320000     -32.80730000     -73.09340000
H      -41.83010000     -31.80690000     -73.24910000
H      -41.23580000     -33.32720000     -73.03670000
S      -46.30640000     -30.75470000     -69.07410000
S      -43.20580000     -33.41900000     -74.43960000
C      -46.58490000     -30.77290000     -70.92410000
H      -46.65040000     -29.74370000     -71.32660000
H      -45.66810000     -31.23970000     -71.32150000
C      -44.81430000     -32.45080000     -74.31050000
H      -44.95110000     -31.84380000     -75.26550000
H      -44.65380000     -31.68070000     -73.51630000
C      -46.16890000     -33.22460000     -74.08390000
H      -46.93800000     -32.51860000     -73.90980000
H      -46.35660000     -33.72770000     -74.98730000
C      -47.80030000     -31.57730000     -71.31050000
H      -47.93280000     -31.53030000     -72.32460000
H      -48.66360000     -31.24550000     -70.74620000
C      -47.61600000     -33.10430000     -70.93630000
C      -47.96020000     -33.59580000     -69.69900000
C      -46.81850000     -34.08030000     -71.65570000
H      -48.45980000     -33.01610000     -69.04390000
C      -46.60610000     -35.23250000     -70.92590000
C      -46.14640000     -34.20040000     -72.98160000
C      -45.49220000     -35.40460000     -73.12820000
S      -47.28410000     -35.16120000     -69.24970000
S      -45.62480000     -36.47130000     -71.71830000
H      -45.05700000     -35.64760000     -74.06760000
