40
Properties=species:S:1:pos:R:3 #=T CELL(abcABC):=T 1.889726e+02=T 90.00000=T Traj:=T positionsangstrom=T Step:=T 0=T Bead:=T pbc="F F F"
C      -47.89210000     -33.71740000     -68.32760000
C      -46.68380000     -33.03630000     -68.39100000
C      -45.54450000     -33.78590000     -68.40450000
C      -45.49070000     -35.17420000     -68.45770000
C      -46.72490000     -35.88290000     -68.41170000
C      -47.93690000     -35.10720000     -68.37510000
H      -48.81330000     -33.16780000     -68.38320000
H      -44.55470000     -33.29600000     -68.55410000
H      -46.87810000     -36.97730000     -68.50530000
H      -48.87100000     -35.66220000     -68.04100000
C      -44.08920000     -35.83520000     -68.40180000
H      -44.04550000     -36.74630000     -67.66160000
H      -43.28950000     -35.13760000     -68.24830000
C      -46.79150000     -31.53510000     -68.42030000
H      -47.44180000     -31.33720000     -69.25290000
H      -47.14860000     -31.09520000     -67.48940000
S      -43.70230000     -36.62410000     -70.06050000
S      -45.16020000     -30.58060000     -68.56380000
C      -43.70180000     -35.26070000     -71.25460000
H      -43.43420000     -34.28170000     -70.82070000
H      -43.14450000     -35.56480000     -72.06530000
C      -44.74200000     -30.43300000     -70.36940000
H      -43.87300000     -29.79060000     -70.38700000
H      -45.63530000     -29.92080000     -70.80200000
C      -44.51300000     -31.81840000     -71.13850000
H      -43.42790000     -32.12910000     -70.78950000
H      -45.32820000     -32.54040000     -70.83690000
C      -45.16100000     -35.08230000     -71.91320000
H      -45.75220000     -34.43780000     -71.28750000
H      -45.67550000     -36.07350000     -71.95850000
C      -45.12370000     -34.39760000     -73.24030000
C      -45.54870000     -35.09810000     -74.36920000
C      -44.97650000     -32.98590000     -73.43920000
H      -45.50650000     -36.21130000     -74.48070000
C      -45.22750000     -32.67700000     -74.74390000
C      -44.66710000     -31.81790000     -72.64810000
C      -44.67810000     -30.68590000     -73.43710000
S      -45.78800000     -33.98300000     -75.71530000
S      -45.03900000     -30.94090000     -75.11750000
H      -44.43370000     -29.73350000     -73.10330000
