40
Properties=species:S:1:pos:R:3 #=T CELL(abcABC):=T 1.889726e+02=T 90.00000=T Traj:=T positionsangstrom=T Step:=T 0=T Bead:=T pbc="F F F"
C      -42.64740000     -33.78180000     -70.55420000
C      -42.56430000     -32.48340000     -71.05700000
C      -43.48470000     -31.47590000     -70.56330000
C      -44.34070000     -31.82260000     -69.51960000
C      -44.41780000     -33.13900000     -69.04530000
C      -43.60970000     -34.13050000     -69.56500000
H      -41.90120000     -34.52020000     -70.95810000
H      -43.42310000     -30.54260000     -71.11740000
H      -45.27970000     -33.25470000     -68.41720000
H      -43.65960000     -35.20050000     -69.37690000
C      -45.24300000     -30.70590000     -68.98510000
H      -45.29050000     -29.69010000     -69.35740000
H      -44.97610000     -30.53860000     -67.93100000
C      -41.76760000     -32.23410000     -72.31820000
H      -41.71080000     -31.14770000     -72.42970000
H      -40.84170000     -32.83020000     -72.24200000
S      -47.05370000     -31.12910000     -69.06130000
S      -42.77280000     -32.94540000     -73.73410000
C      -47.14460000     -31.04360000     -70.96590000
H      -47.51060000     -30.03950000     -71.24730000
H      -46.18310000     -31.22030000     -71.29490000
C      -44.38750000     -32.09080000     -73.89070000
H      -44.32240000     -31.36980000     -74.66870000
H      -44.65080000     -31.55370000     -72.99400000
C      -45.61620000     -33.01170000     -74.17030000
H      -46.55050000     -32.44470000     -74.08470000
H      -45.32930000     -33.45300000     -75.09700000
C      -48.08010000     -32.11900000     -71.59960000
H      -48.07060000     -31.98830000     -72.62540000
H      -49.10880000     -31.98420000     -71.21750000
C      -47.66270000     -33.51440000     -71.26380000
C      -48.18420000     -34.29290000     -70.22800000
C      -46.56710000     -34.20620000     -71.93940000
H      -49.03640000     -33.91620000     -69.62270000
C      -46.32900000     -35.48010000     -71.32220000
C      -45.70110000     -34.06450000     -73.10030000
C      -44.94320000     -35.22920000     -73.39900000
S      -47.35620000     -35.79860000     -70.03610000
S      -45.21840000     -36.54140000     -72.15180000
H      -44.20010000     -35.32910000     -74.20240000
