40
Properties=species:S:1:pos:R:3 #=T CELL(abcABC):=T 1.889726e+02=T 90.00000=T Traj:=T positionsangstrom=T Step:=T 0=T Bead:=T pbc="F F F"
C      -42.86030000     -34.50430000     -71.41710000
C      -43.03390000     -33.40600000     -72.26260000
C      -43.18820000     -32.14730000     -71.72220000
C      -43.23890000     -31.98930000     -70.31460000
C      -43.20450000     -33.07190000     -69.50350000
C      -42.85580000     -34.37720000     -69.97190000
H      -42.38290000     -35.37680000     -71.82920000
H      -43.20470000     -31.35090000     -72.45410000
H      -43.13920000     -32.76340000     -68.49050000
H      -42.71490000     -35.31390000     -69.42170000
C      -43.40170000     -30.61750000     -69.66390000
H      -43.14420000     -29.82540000     -70.35470000
H      -42.91920000     -30.49200000     -68.70770000
C      -42.85210000     -33.52040000     -73.73320000
H      -42.32370000     -32.62040000     -74.03300000
H      -42.07580000     -34.28070000     -73.89580000
S      -45.27580000     -30.38770000     -69.27990000
S      -44.36420000     -33.96770000     -74.65770000
C      -46.18950000     -30.46940000     -70.88450000
H      -46.46600000     -29.39090000     -71.10610000
H      -45.54580000     -30.78920000     -71.72390000
C      -45.72250000     -32.68830000     -74.29210000
H      -45.84560000     -32.05780000     -75.18050000
H      -45.30830000     -32.01140000     -73.57030000
C      -47.03800000     -33.28470000     -73.78610000
H      -47.67080000     -32.53190000     -73.44020000
H      -47.57300000     -33.69450000     -74.67350000
C      -47.45960000     -31.36770000     -70.73760000
H      -47.93500000     -31.35360000     -71.64760000
H      -48.13430000     -30.83000000     -70.03210000
C      -47.13200000     -32.80950000     -70.35040000
C      -47.06020000     -33.22440000     -69.04990000
C      -46.90650000     -33.97830000     -71.27390000
H      -47.30130000     -32.51620000     -68.22160000
C      -46.66930000     -35.10040000     -70.53160000
C      -46.81700000     -34.24400000     -72.69860000
C      -46.60570000     -35.57830000     -72.97260000
S      -46.62090000     -34.92940000     -68.78100000
S      -46.37130000     -36.47770000     -71.51510000
H      -46.43400000     -36.05890000     -73.93440000
