40
Properties=species:S:1:pos:R:3 #=T CELL(abcABC):=T 1.889726e+02=T 90.00000=T Traj:=T positionsangstrom=T Step:=T 0=T Bead:=T pbc="F F F"
C      -42.92800000     -34.46620000     -71.35780000
C      -42.97040000     -33.33900000     -72.19260000
C      -43.08760000     -32.09840000     -71.56900000
C      -43.23220000     -31.94760000     -70.20900000
C      -43.16110000     -33.03180000     -69.36920000
C      -43.00190000     -34.31700000     -69.94390000
H      -42.98900000     -35.41550000     -71.91770000
H      -43.25170000     -31.14660000     -72.15740000
H      -43.50020000     -32.81780000     -68.37820000
H      -42.85720000     -35.26300000     -69.44040000
C      -43.59480000     -30.54050000     -69.71470000
H      -43.49420000     -29.84710000     -70.57810000
H      -43.11380000     -30.14160000     -68.82320000
C      -42.79560000     -33.47960000     -73.68360000
H      -42.48520000     -32.51510000     -74.10770000
H      -42.06960000     -34.24950000     -74.05650000
S      -45.45880000     -30.37890000     -69.25950000
S      -44.33320000     -33.92420000     -74.54950000
C      -46.15590000     -30.66360000     -70.95540000
H      -46.27760000     -29.73720000     -71.47660000
H      -45.37560000     -31.27060000     -71.42730000
C      -45.52800000     -32.54870000     -74.06100000
H      -45.62970000     -31.77140000     -74.87350000
H      -45.21840000     -32.05320000     -73.16090000
C      -46.87850000     -33.25670000     -73.86330000
H      -47.73460000     -32.62610000     -73.54810000
H      -47.20500000     -33.74050000     -74.84370000
C      -47.42260000     -31.49230000     -70.92410000
H      -47.89460000     -31.60870000     -71.90220000
H      -48.27160000     -30.97840000     -70.36090000
C      -47.21800000     -32.91380000     -70.43710000
C      -47.03830000     -33.21120000     -69.12540000
C      -46.82960000     -34.02400000     -71.31340000
H      -47.15600000     -32.41570000     -68.33480000
C      -46.59650000     -35.18540000     -70.57460000
C      -46.79110000     -34.28370000     -72.79260000
C      -46.67810000     -35.62610000     -73.06470000
S      -46.59540000     -34.90790000     -68.82940000
S      -46.33660000     -36.52030000     -71.57840000
H      -46.57640000     -36.09560000     -74.05220000
