40
Properties=species:S:1:pos:R:3 #=T CELL(abcABC):=T 1.889726e+02=T 90.00000=T Traj:=T positionsangstrom=T Step:=T 0=T Bead:=T pbc="F F F"
C      -43.26960000     -34.26250000     -71.44220000
C      -42.92950000     -33.05510000     -72.08900000
C      -43.12090000     -31.84200000     -71.38900000
C      -43.49350000     -31.85410000     -70.04290000
C      -43.63460000     -33.08030000     -69.38590000
C      -43.53040000     -34.26020000     -70.09040000
H      -43.09590000     -35.11720000     -72.11240000
H      -43.08670000     -30.93620000     -71.92240000
H      -43.86230000     -33.10090000     -68.28370000
H      -43.78080000     -35.24000000     -69.62050000
C      -43.65940000     -30.53680000     -69.36530000
H      -43.13180000     -29.69260000     -69.85740000
H      -43.22270000     -30.64330000     -68.36420000
C      -42.60280000     -32.98880000     -73.56780000
H      -42.39330000     -31.89910000     -73.87530000
H      -41.61730000     -33.46770000     -73.82190000
S      -45.58700000     -30.13770000     -69.16420000
S      -43.96720000     -33.75200000     -74.57150000
C      -46.21780000     -30.50280000     -70.83630000
H      -46.51210000     -29.66650000     -71.48590000
H      -45.32220000     -30.91300000     -71.29400000
C      -45.37660000     -32.61710000     -74.27660000
H      -45.51190000     -31.97480000     -75.17320000
H      -45.24860000     -31.91240000     -73.45390000
C      -46.64730000     -33.45060000     -73.96430000
H      -47.54970000     -32.80250000     -73.88750000
H      -46.95180000     -34.10340000     -74.77680000
C      -47.36040000     -31.57980000     -70.95490000
H      -47.78710000     -31.59860000     -72.01540000
H      -48.09620000     -31.29720000     -70.32270000
C      -47.02200000     -33.04070000     -70.48970000
C      -46.91890000     -33.47500000     -69.18890000
C      -46.77350000     -34.14680000     -71.37470000
H      -46.99760000     -32.88250000     -68.33370000
C      -46.61220000     -35.36320000     -70.63810000
C      -46.58300000     -34.42040000     -72.79740000
C      -46.41210000     -35.74950000     -73.06840000
S      -46.63770000     -35.19930000     -68.93840000
S      -46.45920000     -36.72640000     -71.63890000
H      -46.19700000     -36.14970000     -74.03770000
