40
Properties=species:S:1:pos:R:3 #=T CELL(abcABC):=T 1.889726e+02=T 90.00000=T Traj:=T positionsangstrom=T Step:=T 0=T Bead:=T pbc="F F F"
C      -43.02550000     -34.65800000     -71.82370000
C      -42.95360000     -33.50250000     -72.57190000
C      -43.01670000     -32.27140000     -71.90910000
C      -43.13290000     -32.17190000     -70.54520000
C      -43.29950000     -33.37480000     -69.80880000
C      -43.35530000     -34.57550000     -70.49040000
H      -42.94750000     -35.58650000     -72.36790000
H      -42.95220000     -31.40670000     -72.63050000
H      -43.38490000     -33.26600000     -68.70260000
H      -43.22090000     -35.39580000     -69.80180000
C      -43.17650000     -30.77960000     -69.88190000
H      -42.80230000     -29.96350000     -70.47670000
H      -42.58220000     -30.82520000     -68.94810000
C      -42.98280000     -33.59860000     -74.06750000
H      -42.68470000     -32.68960000     -74.64610000
H      -42.34990000     -34.47240000     -74.36860000
S      -44.89800000     -30.44730000     -69.26900000
S      -44.63420000     -33.91090000     -74.71640000
C      -45.94100000     -30.56410000     -70.76280000
H      -46.08360000     -29.53310000     -71.12400000
H      -45.44210000     -31.12350000     -71.59470000
C      -45.64650000     -32.48300000     -74.18830000
H      -45.93580000     -31.85830000     -75.02540000
H      -45.23570000     -31.87180000     -73.37380000
C      -46.98030000     -33.15960000     -73.66210000
H      -47.67730000     -32.28500000     -73.39020000
H      -47.45700000     -33.63550000     -74.49610000
C      -47.29730000     -31.29670000     -70.51520000
H      -47.88830000     -31.05040000     -71.45740000
H      -47.87510000     -30.94550000     -69.72830000
C      -46.94690000     -32.75580000     -70.24150000
C      -47.04800000     -33.10180000     -68.88420000
C      -46.71310000     -33.85240000     -71.12260000
H      -47.20340000     -32.41750000     -68.12560000
C      -46.60410000     -35.02740000     -70.32860000
C      -46.82360000     -34.10400000     -72.53100000
C      -46.75880000     -35.47710000     -72.74560000
S      -46.74050000     -34.85180000     -68.57850000
S      -46.54340000     -36.38010000     -71.28850000
H      -46.89780000     -35.94720000     -73.70740000
