40
Properties=species:S:1:pos:R:3 #=T CELL(abcABC):=T 1.889726e+02=T 90.00000=T Traj:=T positionsangstrom=T Step:=T 0=T Bead:=T pbc="F F F"
C      -42.99760000     -34.31270000     -71.32980000
C      -42.91300000     -33.14220000     -72.17950000
C      -43.08140000     -31.92280000     -71.44690000
C      -43.21930000     -31.82310000     -70.06070000
C      -43.48010000     -33.01110000     -69.32750000
C      -43.39900000     -34.23750000     -69.97090000
H      -42.95890000     -35.26270000     -71.90960000
H      -42.85750000     -30.96070000     -71.99760000
H      -43.76790000     -32.80870000     -68.24830000
H      -43.55530000     -35.18410000     -69.43610000
C      -43.69990000     -30.51510000     -69.49370000
H      -43.24430000     -29.65770000     -69.99020000
H      -43.28770000     -30.48040000     -68.49040000
C      -42.63770000     -33.28710000     -73.64810000
H      -42.22500000     -32.37650000     -74.01220000
H      -42.00970000     -34.10840000     -73.87890000
S      -45.47920000     -30.38680000     -69.26230000
S      -44.17430000     -33.87490000     -74.61800000
C      -46.20690000     -30.55470000     -70.94250000
H      -46.53160000     -29.55020000     -71.28650000
H      -45.41570000     -30.89240000     -71.59670000
C      -45.43450000     -32.72050000     -74.03220000
H      -45.44120000     -31.94150000     -74.77780000
H      -45.09560000     -32.36070000     -73.05220000
C      -46.89080000     -33.31190000     -73.78430000
H      -47.44610000     -32.44860000     -73.39340000
H      -47.29960000     -33.69690000     -74.67280000
C      -47.41730000     -31.42500000     -70.88120000
H      -48.01950000     -31.27590000     -71.82840000
H      -47.96630000     -31.02260000     -70.09620000
C      -47.14060000     -32.94590000     -70.54370000
C      -47.02550000     -33.28240000     -69.22410000
C      -46.87620000     -34.07550000     -71.35850000
H      -47.23820000     -32.65260000     -68.39420000
C      -46.59040000     -35.28260000     -70.65150000
C      -46.77690000     -34.37030000     -72.75680000
C      -46.51040000     -35.66960000     -73.11910000
S      -46.63370000     -35.02720000     -68.87760000
S      -46.29840000     -36.67060000     -71.68040000
H      -46.50510000     -36.13760000     -74.10380000
