40
Properties=species:S:1:pos:R:3 #=T CELL(abcABC):=T 1.889726e+02=T 90.00000=T Traj:=T positionsangstrom=T Step:=T 0=T Bead:=T pbc="F F F"
C      -42.92830000     -34.17720000     -71.33310000
C      -42.81240000     -32.92870000     -71.92800000
C      -43.07350000     -31.77290000     -71.18070000
C      -43.58550000     -31.89610000     -69.89590000
C      -43.53930000     -33.09890000     -69.29260000
C      -43.24030000     -34.22990000     -70.02410000
H      -42.79400000     -35.12180000     -71.89420000
H      -42.86940000     -30.75440000     -71.62500000
H      -43.84310000     -33.38310000     -68.31400000
H      -43.29240000     -35.15730000     -69.52260000
C      -44.01880000     -30.54230000     -69.24940000
H      -43.46750000     -29.72200000     -69.76930000
H      -43.71140000     -30.43070000     -68.20040000
C      -42.40960000     -32.79760000     -73.36420000
H      -42.05890000     -31.82980000     -73.70000000
H      -41.66510000     -33.61440000     -73.50790000
S      -45.78440000     -30.30140000     -69.17090000
S      -43.78830000     -33.31840000     -74.45350000
C      -46.29110000     -30.66650000     -71.00930000
H      -46.55860000     -29.69900000     -71.46500000
H      -45.48660000     -31.12400000     -71.56730000
C      -45.33660000     -32.52340000     -73.92800000
H      -45.60840000     -31.64130000     -74.53460000
H      -45.11260000     -32.22800000     -72.90650000
C      -46.54580000     -33.45280000     -74.01380000
H      -47.35320000     -32.75720000     -73.88600000
H      -46.58010000     -33.91340000     -75.04510000
C      -47.45760000     -31.69590000     -71.03340000
H      -47.76170000     -31.70360000     -72.02600000
H      -48.41050000     -31.41120000     -70.39480000
C      -47.10710000     -33.10810000     -70.65040000
C      -47.14940000     -33.53160000     -69.35700000
C      -46.76620000     -34.28240000     -71.47200000
H      -47.34990000     -32.82790000     -68.48160000
C      -46.68240000     -35.47050000     -70.76230000
C      -46.56310000     -34.52480000     -72.90280000
C      -46.28960000     -35.82950000     -73.19090000
S      -46.80950000     -35.26570000     -69.04510000
S      -46.41240000     -36.81170000     -71.83320000
H      -46.25960000     -36.22140000     -74.21500000
