40
Properties=species:S:1:pos:R:3 #=T CELL(abcABC):=T 1.889726e+02=T 90.00000=T Traj:=T positionsangstrom=T Step:=T 0=T Bead:=T pbc="F F F"
C      -43.46530000     -35.16940000     -72.38920000
C      -43.32370000     -34.01570000     -73.20410000
C      -42.98650000     -32.79800000     -72.56240000
C      -42.77720000     -32.73210000     -71.20650000
C      -42.87800000     -33.90810000     -70.46610000
C      -43.30950000     -35.10750000     -71.00000000
H      -43.74080000     -36.13160000     -72.82180000
H      -42.89990000     -31.86360000     -73.16730000
H      -42.72110000     -33.68590000     -69.38180000
H      -43.42190000     -36.00550000     -70.45530000
C      -42.41130000     -31.31100000     -70.64660000
H      -42.20090000     -30.70060000     -71.46520000
H      -41.56020000     -31.31730000     -69.95860000
C      -43.45390000     -34.05520000     -74.67140000
H      -43.15840000     -33.13240000     -75.18610000
H      -42.95700000     -34.87600000     -75.18460000
S      -43.97660000     -30.65540000     -69.76780000
S      -45.38140000     -34.29070000     -75.00130000
C      -45.22210000     -30.72300000     -71.11010000
H      -44.99180000     -29.83600000     -71.75310000
H      -44.92260000     -31.58800000     -71.76260000
C      -45.84280000     -32.86420000     -73.94320000
H      -46.14470000     -31.89510000     -74.44770000
H      -45.07150000     -32.47050000     -73.33050000
C      -47.11590000     -33.07990000     -73.13240000
H      -47.40270000     -32.10130000     -72.70340000
H      -47.83520000     -33.47370000     -73.85030000
C      -46.66690000     -30.85170000     -70.69320000
H      -47.37220000     -30.85220000     -71.57180000
H      -46.99770000     -29.98950000     -70.02330000
C      -46.80130000     -32.17080000     -69.93220000
C      -46.70250000     -32.23130000     -68.55940000
C      -46.82650000     -33.46510000     -70.56870000
H      -46.58080000     -31.40260000     -67.89820000
C      -46.82410000     -34.51240000     -69.62470000
C      -47.04430000     -33.97790000     -71.93350000
C      -47.16340000     -35.32970000     -71.95470000
S      -46.87070000     -33.90170000     -68.00640000
S      -47.02530000     -36.07200000     -70.38640000
H      -47.28190000     -35.81670000     -72.87670000
