40
Properties=species:S:1:pos:R:3 #=T CELL(abcABC):=T 1.889726e+02=T 90.00000=T Traj:=T positionsangstrom=T Step:=T 0=T Bead:=T pbc="F F F"
C      -49.54220000     -34.79670000     -72.44060000
C      -48.37210000     -35.26230000     -71.84330000
C      -47.10370000     -34.97340000     -72.29190000
C      -46.97990000     -34.05540000     -73.37320000
C      -48.15790000     -33.64620000     -74.05290000
C      -49.39500000     -33.98030000     -73.56030000
H      -50.47850000     -34.94800000     -72.04740000
H      -46.22970000     -35.54390000     -71.87300000
H      -48.01670000     -33.00690000     -74.93260000
H      -50.26130000     -33.81470000     -74.22850000
C      -45.60490000     -33.54180000     -73.87500000
H      -45.11260000     -33.04240000     -73.06310000
H      -45.79490000     -32.89040000     -74.72550000
C      -48.46990000     -36.20480000     -70.66380000
H      -49.48620000     -36.52210000     -70.40670000
H      -47.85230000     -37.10390000     -70.75780000
S      -44.17470000     -34.74680000     -74.43020000
S      -47.89990000     -35.30160000     -69.17170000
C      -43.14750000     -35.14260000     -72.91200000
H      -43.16510000     -36.20450000     -72.73440000
H      -42.14020000     -34.93470000     -73.13780000
C      -46.19850000     -34.53930000     -69.31640000
H      -45.58390000     -35.18780000     -69.94410000
H      -45.84310000     -34.78410000     -68.27980000
C      -46.28750000     -33.03640000     -69.74230000
H      -46.56630000     -32.80100000     -70.84920000
H      -46.96120000     -32.59110000     -69.08180000
C      -43.57440000     -34.50250000     -71.59080000
H      -43.30560000     -35.15740000     -70.74320000
H      -44.62890000     -34.55670000     -71.51860000
C      -43.10210000     -33.11730000     -71.27490000
C      -41.92690000     -32.59020000     -71.72210000
C      -43.73050000     -32.31720000     -70.22280000
H      -41.10760000     -33.18340000     -72.17420000
C      -42.95610000     -31.13000000     -70.01650000
C      -44.99110000     -32.24710000     -69.51960000
C      -45.19150000     -31.00500000     -68.87160000
S      -41.53910000     -31.04930000     -70.97480000
S      -43.75940000     -29.96760000     -68.98650000
H      -45.98460000     -30.71270000     -68.25160000
