40
Properties=species:S:1:pos:R:3 #=T CELL(abcABC):=T 1.889726e+02=T 90.00000=T Traj:=T positionsangstrom=T Step:=T 0=T Bead:=T pbc="F F F"
C      -43.20910000     -35.25980000     -72.30060000
C      -43.06200000     -34.14930000     -73.15800000
C      -42.80660000     -32.92880000     -72.53660000
C      -42.69890000     -32.74440000     -71.13630000
C      -43.01550000     -33.80640000     -70.34570000
C      -43.21770000     -35.09030000     -70.93760000
H      -43.31970000     -36.26360000     -72.72840000
H      -42.76540000     -31.98640000     -73.20240000
H      -43.06490000     -33.65450000     -69.28270000
H      -43.35790000     -36.03430000     -70.41900000
C      -42.58240000     -31.36870000     -70.43560000
H      -42.11110000     -30.51290000     -71.07180000
H      -41.86660000     -31.54680000     -69.62220000
C      -43.39340000     -34.22600000     -74.57210000
H      -42.99820000     -33.33770000     -75.08680000
H      -43.00520000     -35.14100000     -75.02100000
S      -44.09130000     -30.68170000     -69.64240000
S      -45.21850000     -34.28250000     -74.97150000
C      -45.29240000     -30.51960000     -71.04270000
H      -45.07500000     -29.53680000     -71.34940000
H      -45.00100000     -31.24390000     -71.76160000
C      -46.06740000     -32.85220000     -74.20170000
H      -46.31220000     -32.21270000     -75.01210000
H      -45.26560000     -32.45790000     -73.56840000
C      -47.28060000     -33.35000000     -73.36250000
H      -47.87510000     -32.43380000     -73.27450000
H      -47.95150000     -34.03150000     -73.86550000
C      -46.76960000     -30.72790000     -70.66520000
H      -47.38480000     -30.66970000     -71.51660000
H      -46.99370000     -29.86640000     -70.06640000
C      -46.98220000     -32.11330000     -70.02040000
C      -47.07130000     -32.20470000     -68.61590000
C      -46.98400000     -33.38050000     -70.69370000
H      -47.09060000     -31.43390000     -67.86540000
C      -46.97260000     -34.41090000     -69.71710000
C      -47.00440000     -33.94950000     -71.99920000
C      -46.93250000     -35.31720000     -72.01600000
S      -46.93130000     -33.86120000     -68.08840000
S      -46.77930000     -36.02040000     -70.40830000
H      -46.96880000     -35.97850000     -72.86920000
