40
Properties=species:S:1:pos:R:3 #=T CELL(abcABC):=T 1.889726e+02=T 90.00000=T Traj:=T positionsangstrom=T Step:=T 0=T Bead:=T pbc="F F F"
C      -43.08650000     -35.05820000     -72.18670000
C      -43.16220000     -33.90850000     -72.95060000
C      -43.01130000     -32.69670000     -72.31760000
C      -42.96050000     -32.60370000     -70.94130000
C      -43.03900000     -33.77430000     -70.15610000
C      -42.92540000     -34.99810000     -70.76700000
H      -42.96490000     -35.98810000     -72.77010000
H      -43.02450000     -31.89670000     -72.89970000
H      -42.81900000     -33.54560000     -69.13310000
H      -42.78140000     -35.89450000     -70.10170000
C      -42.82410000     -31.33970000     -70.21160000
H      -42.44780000     -30.59120000     -70.95460000
H      -42.19100000     -31.33380000     -69.24450000
C      -43.27240000     -34.16940000     -74.47940000
H      -42.91630000     -33.39010000     -75.21570000
H      -42.91520000     -35.14570000     -74.83770000
S      -44.47080000     -30.69770000     -69.63480000
S      -45.11540000     -34.47710000     -74.88450000
C      -45.47850000     -30.72590000     -71.19440000
H      -45.44690000     -29.78880000     -71.68970000
H      -45.21310000     -31.50350000     -71.89750000
C      -45.91880000     -32.86520000     -74.31680000
H      -46.12560000     -32.24580000     -75.25880000
H      -45.13520000     -32.35330000     -73.80940000
C      -47.14460000     -33.17470000     -73.49140000
H      -47.62280000     -32.24840000     -73.27520000
H      -47.81300000     -33.83540000     -74.01490000
C      -46.95220000     -30.88110000     -70.72850000
H      -47.53610000     -30.67060000     -71.65830000
H      -47.08260000     -30.06460000     -70.03740000
C      -47.14180000     -32.22290000     -70.10370000
C      -47.14810000     -32.26050000     -68.73400000
C      -46.77960000     -33.46290000     -70.76250000
H      -47.03680000     -31.45080000     -67.98850000
C      -46.67890000     -34.44470000     -69.86260000
C      -46.79670000     -33.94910000     -72.13710000
C      -46.75700000     -35.30410000     -72.10270000
S      -46.91680000     -33.90500000     -68.19970000
S      -46.63760000     -35.98560000     -70.50720000
H      -46.67110000     -36.08050000     -72.84710000
