40
Properties=species:S:1:pos:R:3 #=T CELL(abcABC):=T 1.889726e+02=T 90.00000=T Traj:=T positionsangstrom=T Step:=T 0=T Bead:=T pbc="F F F"
C      -49.15360000     -33.01010000     -71.35880000
C      -47.82250000     -32.65030000     -71.11260000
C      -46.89370000     -33.65640000     -70.84140000
C      -47.33770000     -34.99370000     -70.77340000
C      -48.57990000     -35.34440000     -71.18960000
C      -49.47320000     -34.36630000     -71.55230000
H      -49.88990000     -32.22330000     -71.50700000
H      -45.88470000     -33.53260000     -70.60790000
H      -49.00250000     -36.33860000     -71.04840000
H      -50.50580000     -34.59460000     -71.86640000
C      -46.31250000     -35.94930000     -70.17650000
H      -46.84010000     -36.68470000     -69.60990000
H      -45.57170000     -35.38030000     -69.61480000
C      -47.31390000     -31.18220000     -71.24730000
H      -47.98560000     -30.38830000     -70.87970000
H      -46.40410000     -31.05930000     -70.68670000
S      -45.42680000     -36.98570000     -71.31890000
S      -46.78680000     -30.62700000     -72.91970000
C      -44.93870000     -35.83250000     -72.66800000
H      -45.00790000     -36.38160000     -73.66940000
H      -45.66270000     -35.00440000     -72.64640000
C      -45.89060000     -31.99990000     -73.77960000
H      -46.15660000     -31.79800000     -74.82410000
H      -46.52690000     -32.92250000     -73.50900000
C      -44.34030000     -31.98410000     -73.63740000
H      -43.91560000     -32.85290000     -74.19120000
H      -44.11440000     -31.05310000     -74.21610000
C      -43.54710000     -35.17000000     -72.69270000
H      -43.41050000     -34.56130000     -73.59790000
H      -42.78840000     -35.95160000     -72.90620000
C      -43.22140000     -34.45210000     -71.43980000
C      -42.74850000     -35.02540000     -70.26260000
C      -43.52790000     -32.99360000     -71.29680000
H      -42.49250000     -36.09480000     -69.99200000
C      -43.29850000     -32.55330000     -69.99540000
C      -43.80070000     -31.94800000     -72.24940000
C      -43.77010000     -30.67290000     -71.60840000
S      -42.77010000     -33.85070000     -68.95930000
S      -43.50000000     -30.79460000     -69.87070000
H      -43.93550000     -29.67860000     -72.05550000
