40
Properties=species:S:1:pos:R:3 #=T CELL(abcABC):=T 1.889726e+02=T 90.00000=T Traj:=T positionsangstrom=T Step:=T 0=T Bead:=T pbc="F F F"
C      -43.23200000     -35.19750000     -72.26370000
C      -43.20270000     -34.04130000     -73.03410000
C      -42.96250000     -32.86930000     -72.35980000
C      -42.85630000     -32.71730000     -70.97850000
C      -42.78460000     -33.90830000     -70.24010000
C      -43.04030000     -35.14350000     -70.87710000
H      -43.55080000     -36.08900000     -72.83090000
H      -42.93120000     -32.02210000     -73.00420000
H      -42.69100000     -33.80890000     -69.16890000
H      -43.15730000     -36.09170000     -70.28160000
C      -42.73970000     -31.34950000     -70.38840000
H      -42.32920000     -30.66770000     -71.08490000
H      -42.08930000     -31.32060000     -69.57300000
C      -43.46750000     -34.03780000     -74.53690000
H      -43.08600000     -33.09190000     -74.92560000
H      -42.86130000     -34.80930000     -75.03900000
S      -44.35090000     -30.67350000     -69.70410000
S      -45.13310000     -34.42090000     -74.85030000
C      -45.38790000     -30.44690000     -71.17910000
H      -45.42860000     -29.37670000     -71.62800000
H      -45.06620000     -31.04280000     -72.07040000
C      -45.90990000     -32.91540000     -74.13820000
H      -46.23050000     -32.16630000     -74.88760000
H      -45.25610000     -32.35330000     -73.44350000
C      -47.16440000     -33.11290000     -73.26690000
H      -47.66010000     -32.17400000     -72.95590000
H      -47.96400000     -33.60850000     -73.93090000
C      -46.83420000     -30.82530000     -70.78480000
H      -47.51450000     -30.66080000     -71.67950000
H      -47.28690000     -30.19090000     -70.03980000
C      -46.98090000     -32.12560000     -70.11040000
C      -47.06510000     -32.19010000     -68.72790000
C      -46.95130000     -33.49650000     -70.71780000
H      -47.30920000     -31.26600000     -68.14850000
C      -46.90130000     -34.50060000     -69.77160000
C      -46.85840000     -33.98590000     -72.08800000
C      -46.82180000     -35.33000000     -72.10480000
S      -46.97350000     -33.81560000     -68.15740000
S      -46.60640000     -36.06300000     -70.46690000
H      -46.77990000     -36.01170000     -72.97290000
