40
Properties=species:S:1:pos:R:3 #=T CELL(abcABC):=T 1.889726e+02=T 90.00000=T Traj:=T positionsangstrom=T Step:=T 0=T Bead:=T pbc="F F F"
C      -43.48360000     -35.13250000     -72.35880000
C      -43.25320000     -34.03620000     -73.18710000
C      -42.80670000     -32.78150000     -72.64160000
C      -42.54320000     -32.70890000     -71.27740000
C      -42.84610000     -33.81170000     -70.49400000
C      -43.22550000     -35.04550000     -70.96860000
H      -43.79380000     -36.06480000     -72.83330000
H      -42.57510000     -31.97960000     -73.28120000
H      -42.64290000     -33.70860000     -69.43370000
H      -43.40220000     -35.91780000     -70.36250000
C      -42.26440000     -31.41130000     -70.64080000
H      -41.82860000     -30.75390000     -71.34790000
H      -41.57480000     -31.34640000     -69.74250000
C      -43.64600000     -34.23480000     -74.62500000
H      -43.13910000     -33.50820000     -75.26350000
H      -43.32740000     -35.23880000     -74.96180000
S      -43.75860000     -30.56580000     -69.89720000
S      -45.49800000     -34.24550000     -74.95110000
C      -45.11980000     -30.53890000     -71.21350000
H      -45.18280000     -29.63030000     -71.82710000
H      -44.95310000     -31.27540000     -71.93220000
C      -46.34810000     -32.77250000     -74.11810000
H      -46.75240000     -32.31890000     -75.03310000
H      -45.46890000     -32.15940000     -73.83400000
C      -47.43510000     -33.14590000     -73.10920000
H      -47.78440000     -32.18260000     -72.75710000
H      -48.26940000     -33.58880000     -73.68020000
C      -46.46620000     -30.78290000     -70.54590000
H      -47.20830000     -30.61600000     -71.32090000
H      -46.64240000     -29.96800000     -69.86840000
C      -46.56880000     -32.20110000     -69.85750000
C      -46.44930000     -32.35840000     -68.49860000
C      -46.89930000     -33.45150000     -70.51270000
H      -46.21800000     -31.57140000     -67.77000000
C      -46.95550000     -34.50650000     -69.63110000
C      -47.08020000     -33.98310000     -71.90240000
C      -47.21300000     -35.35040000     -71.93420000
S      -46.71760000     -34.05650000     -67.99690000
S      -47.33820000     -36.05220000     -70.33920000
H      -47.15490000     -35.88750000     -72.85120000
