40
Properties=species:S:1:pos:R:3 #=T CELL(abcABC):=T 1.889726e+02=T 90.00000=T Traj:=T positionsangstrom=T Step:=T 0=T Bead:=T pbc="F F F"
C      -47.46220000     -33.55590000     -73.04380000
C      -47.18310000     -34.43720000     -72.01650000
C      -47.11560000     -33.87930000     -70.73640000
C      -47.40500000     -32.55670000     -70.43360000
C      -47.58390000     -31.64730000     -71.47610000
C      -47.60950000     -32.15130000     -72.77590000
H      -47.55880000     -33.90310000     -74.09330000
H      -46.88590000     -34.59870000     -69.93610000
H      -47.59230000     -30.61390000     -71.30350000
H      -47.67830000     -31.41380000     -73.60970000
C      -47.36270000     -32.13680000     -68.92270000
H      -47.27990000     -33.03710000     -68.27210000
H      -48.19550000     -31.43850000     -68.84220000
C      -46.99050000     -35.89760000     -72.18560000
H      -48.00300000     -36.39600000     -72.31270000
H      -46.49140000     -36.17050000     -73.13360000
S      -45.82190000     -31.23030000     -68.50460000
S      -46.28650000     -36.83830000     -70.69980000
C      -44.75780000     -32.71390000     -68.30680000
H      -44.42020000     -32.95490000     -67.27380000
H      -45.38190000     -33.49280000     -68.80240000
C      -44.47780000     -36.95070000     -71.02510000
H      -44.31260000     -37.50740000     -71.96490000
H      -44.06280000     -37.66170000     -70.26360000
C      -43.65960000     -35.69540000     -70.77930000
H      -43.90440000     -35.24650000     -69.89900000
H      -42.60120000     -36.01980000     -70.72560000
C      -43.47540000     -32.68710000     -69.18350000
H      -42.96300000     -33.72130000     -69.05440000
H      -42.77620000     -32.07930000     -68.70510000
C      -43.68780000     -32.25740000     -70.56710000
C      -43.73820000     -30.95370000     -70.94160000
C      -43.84860000     -33.22650000     -71.71100000
H      -43.77820000     -30.06090000     -70.37150000
C      -44.03140000     -32.49410000     -72.88070000
C      -43.82260000     -34.64440000     -71.87520000
C      -43.95840000     -34.98260000     -73.19190000
S      -43.96100000     -30.79920000     -72.62580000
S      -44.10300000     -33.55080000     -74.21470000
H      -43.77310000     -35.99390000     -73.64180000
