40
Properties=species:S:1:pos:R:3 #=T CELL(abcABC):=T 1.889726e+02=T 90.00000=T Traj:=T positionsangstrom=T Step:=T 0=T Bead:=T pbc="F F F"
C      -48.77240000     -34.11920000     -71.82310000
C      -48.19910000     -35.25780000     -71.28110000
C      -47.22790000     -35.95830000     -71.99750000
C      -46.88670000     -35.63390000     -73.31510000
C      -47.40960000     -34.41920000     -73.86840000
C      -48.36990000     -33.72240000     -73.09290000
H      -49.64050000     -33.60950000     -71.38930000
H      -46.80910000     -36.87150000     -71.46680000
H      -47.07790000     -34.01030000     -74.83340000
H      -48.74930000     -32.83710000     -73.50880000
C      -45.88900000     -36.54420000     -74.18180000
H      -46.01760000     -36.28930000     -75.26030000
H      -46.18870000     -37.57680000     -74.05070000
C      -48.48910000     -35.58460000     -69.84370000
H      -49.50670000     -35.51890000     -69.52160000
H      -48.19390000     -36.59630000     -69.68030000
S      -44.06300000     -36.32780000     -73.73600000
S      -47.70160000     -34.47220000     -68.46650000
C      -43.81560000     -34.60240000     -73.33770000
H      -42.75840000     -34.41240000     -73.46170000
H      -44.43290000     -33.97810000     -73.94820000
C      -46.24290000     -33.72130000     -69.36020000
H      -46.03000000     -34.41790000     -70.16130000
H      -45.41920000     -33.62750000     -68.64050000
C      -46.52350000     -32.30650000     -69.81420000
H      -47.11190000     -32.27710000     -70.73450000
H      -47.20340000     -31.85600000     -69.09190000
C      -44.03020000     -34.28330000     -71.87700000
H      -43.39010000     -34.95120000     -71.27150000
H      -45.04270000     -34.49290000     -71.64260000
C      -43.54210000     -32.89870000     -71.52270000
C      -42.16170000     -32.67900000     -71.77690000
C      -44.09840000     -31.75760000     -70.79290000
H      -41.38370000     -33.35900000     -72.18350000
C      -43.18110000     -30.73990000     -70.65230000
C      -45.30440000     -31.41830000     -70.04360000
C      -45.21950000     -30.16050000     -69.54400000
S      -41.59940000     -31.07050000     -71.32160000
S      -43.69920000     -29.32060000     -69.69600000
H      -45.90620000     -29.66330000     -68.86660000
