40
Properties=species:S:1:pos:R:3 #=T CELL(abcABC):=T 1.889726e+02=T 90.00000=T Traj:=T positionsangstrom=T Step:=T 0=T Bead:=T pbc="F F F"
C      -43.75160000     -35.29800000     -72.00550000
C      -43.99980000     -34.27470000     -72.93540000
C      -43.41870000     -33.00980000     -72.70280000
C      -42.74790000     -32.77190000     -71.51070000
C      -42.50800000     -33.87560000     -70.62290000
C      -43.07680000     -35.12030000     -70.85340000
H      -44.14750000     -36.36030000     -72.14550000
H      -43.44500000     -32.25450000     -73.49410000
H      -41.89840000     -33.71910000     -69.72330000
H      -43.02980000     -35.89170000     -70.07330000
C      -42.00530000     -31.48040000     -71.29220000
H      -41.72030000     -30.91330000     -72.17460000
H      -41.14830000     -31.66010000     -70.60140000
C      -44.64870000     -34.60250000     -74.22770000
H      -44.24260000     -34.27200000     -75.16950000
H      -44.68850000     -35.68060000     -74.41760000
S      -43.12950000     -30.32000000     -70.28850000
S      -46.48350000     -34.42470000     -74.13490000
C      -44.68870000     -30.27490000     -71.30600000
H      -44.81980000     -29.26380000     -71.60980000
H      -44.48860000     -30.84060000     -72.17400000
C      -47.02480000     -32.73070000     -73.69580000
H      -47.27230000     -32.27350000     -74.62780000
H      -46.17970000     -32.11000000     -73.43810000
C      -48.17670000     -32.68390000     -72.70520000
H      -48.13700000     -31.63120000     -72.29470000
H      -49.24560000     -32.84360000     -73.01350000
C      -45.90470000     -30.79140000     -70.58240000
H      -46.73880000     -30.59620000     -71.34630000
H      -45.94840000     -30.18900000     -69.65850000
C      -45.93080000     -32.24840000     -70.17150000
C      -45.16170000     -32.66520000     -69.11350000
C      -46.73640000     -33.34320000     -70.66070000
H      -44.52690000     -32.00890000     -68.54960000
C      -46.44630000     -34.54920000     -69.97670000
C      -47.82500000     -33.61150000     -71.56110000
C      -48.38120000     -34.87300000     -71.40750000
S      -45.39490000     -34.32690000     -68.64200000
S      -47.52960000     -35.86370000     -70.23510000
H      -49.09940000     -35.31040000     -72.10270000
