40
Properties=species:S:1:pos:R:3 #=T CELL(abcABC):=T 1.889726e+02=T 90.00000=T Traj:=T positionsangstrom=T Step:=T 0=T Bead:=T pbc="F F F"
C      -49.08790000     -34.30470000     -71.86270000
C      -48.15380000     -35.23460000     -71.35370000
C      -47.10330000     -35.54430000     -72.22430000
C      -46.96920000     -34.93680000     -73.49590000
C      -48.04180000     -34.08420000     -73.94360000
C      -49.04620000     -33.69740000     -73.12320000
H      -49.94420000     -33.98950000     -71.23430000
H      -46.37470000     -36.24420000     -71.86350000
H      -47.83210000     -33.61760000     -74.93600000
H      -49.75250000     -32.91720000     -73.31950000
C      -45.82460000     -35.34950000     -74.50680000
H      -45.71780000     -34.46860000     -75.15620000
H      -46.23640000     -36.11920000     -75.26640000
C      -48.36780000     -35.85070000     -69.98220000
H      -49.34520000     -36.27630000     -69.85690000
H      -47.69250000     -36.71640000     -69.98160000
S      -44.32800000     -36.22160000     -73.77850000
S      -47.86970000     -34.68340000     -68.62510000
C      -43.32660000     -34.75450000     -73.18720000
H      -42.27750000     -34.92550000     -73.34520000
H      -43.48610000     -33.95800000     -73.93930000
C      -46.18180000     -34.01400000     -69.30920000
H      -45.67550000     -34.85340000     -69.75080000
H      -45.60590000     -33.65040000     -68.41880000
C      -46.27240000     -32.73140000     -70.23880000
H      -46.49100000     -33.13590000     -71.26960000
H      -47.13430000     -32.13650000     -69.95680000
C      -43.58800000     -34.40760000     -71.72050000
H      -43.19850000     -35.14370000     -70.96410000
H      -44.68610000     -34.44720000     -71.51080000
C      -43.02310000     -32.98160000     -71.28200000
C      -41.73250000     -32.53090000     -71.57520000
C      -43.80280000     -31.87970000     -70.66420000
H      -41.03380000     -33.04280000     -72.14770000
C      -43.05440000     -30.69750000     -70.46510000
C      -45.14720000     -31.78100000     -70.12840000
C      -45.36240000     -30.59750000     -69.43070000
S      -41.44970000     -30.89200000     -71.06180000
S      -43.96090000     -29.56500000     -69.55010000
H      -46.25040000     -30.37790000     -68.91280000
