40
Properties=species:S:1:pos:R:3 #=T CELL(abcABC):=T 1.889726e+02=T 90.00000=T Traj:=T positionsangstrom=T Step:=T 0=T Bead:=T pbc="F F F"
C      -48.62100000     -34.07950000     -71.83950000
C      -48.03710000     -35.23360000     -71.19940000
C      -47.07940000     -36.00090000     -71.85360000
C      -46.74710000     -35.76760000     -73.24630000
C      -47.33580000     -34.64540000     -73.86000000
C      -48.27920000     -33.80680000     -73.14870000
H      -49.21620000     -33.38950000     -71.27960000
H      -46.55800000     -36.80860000     -71.27780000
H      -47.23490000     -34.48130000     -74.88780000
H      -48.73860000     -32.94000000     -73.70240000
C      -45.82700000     -36.66560000     -74.02980000
H      -45.88240000     -36.57560000     -75.09440000
H      -46.05400000     -37.66670000     -73.74870000
C      -48.43150000     -35.61560000     -69.83650000
H      -49.54950000     -35.56580000     -69.77180000
H      -48.14700000     -36.68460000     -69.57810000
S      -44.05300000     -36.33110000     -73.58430000
S      -47.91470000     -34.37600000     -68.53760000
C      -43.95100000     -34.51310000     -73.38370000
H      -42.95670000     -34.28750000     -73.69830000
H      -44.63150000     -34.05210000     -74.14610000
C      -46.34800000     -33.58880000     -69.07450000
H      -45.68350000     -34.36510000     -69.52470000
H      -45.88040000     -33.33870000     -68.13930000
C      -46.45010000     -32.34270000     -69.91200000
H      -46.81820000     -32.56100000     -70.87290000
H      -47.32920000     -31.69570000     -69.45600000
C      -44.41730000     -33.98940000     -72.03320000
H      -44.43170000     -34.84370000     -71.24510000
H      -45.44670000     -33.63030000     -72.11800000
C      -43.55040000     -32.88540000     -71.52360000
C      -42.21510000     -32.67100000     -71.95610000
C      -43.97990000     -31.80490000     -70.67810000
H      -41.53940000     -33.29230000     -72.66040000
C      -43.07410000     -30.74020000     -70.63430000
C      -45.21620000     -31.50000000     -69.95170000
C      -45.18950000     -30.25700000     -69.46520000
S      -41.61800000     -31.05680000     -71.46860000
S      -43.66970000     -29.32910000     -69.80300000
H      -45.95810000     -29.70510000     -68.94140000
