40
Properties=species:S:1:pos:R:3 #=T CELL(abcABC):=T 1.889726e+02=T 90.00000=T Traj:=T positionsangstrom=T Step:=T 0=T Bead:=T pbc="F F F"
C      -48.88070000     -32.91460000     -71.70030000
C      -47.63650000     -32.58020000     -71.10140000
C      -46.90990000     -33.70760000     -70.59590000
C      -47.40380000     -35.03700000     -70.65820000
C      -48.75080000     -35.25230000     -71.08710000
C      -49.42900000     -34.25650000     -71.68970000
H      -49.55470000     -32.22870000     -72.17080000
H      -45.88090000     -33.56670000     -70.25590000
H      -49.09260000     -36.25800000     -71.09840000
H      -50.41290000     -34.45470000     -72.15020000
C      -46.57190000     -36.09390000     -70.03920000
H      -47.27090000     -36.96670000     -69.68680000
H      -46.16880000     -35.78690000     -69.07830000
C      -47.14220000     -31.12870000     -71.11320000
H      -47.95760000     -30.46320000     -70.67770000
H      -46.39520000     -31.08070000     -70.31660000
S      -45.21180000     -36.99990000     -71.10350000
S      -46.73880000     -30.49640000     -72.85820000
C      -44.94020000     -35.99980000     -72.63900000
H      -45.18090000     -36.64410000     -73.43390000
H      -45.72220000     -35.25830000     -72.71180000
C      -46.08160000     -31.93150000     -73.71570000
H      -46.45960000     -31.93970000     -74.72570000
H      -46.39590000     -32.82960000     -73.29060000
C      -44.58470000     -32.00270000     -73.73340000
H      -44.30130000     -32.94250000     -74.22650000
H      -44.09540000     -31.20840000     -74.29660000
C      -43.59620000     -35.46360000     -72.62960000
H      -43.45500000     -35.03210000     -73.67800000
H      -42.82000000     -36.24260000     -72.59690000
C      -43.37100000     -34.52620000     -71.51750000
C      -42.85090000     -34.99130000     -70.30280000
C      -43.54790000     -33.02700000     -71.44590000
H      -42.77560000     -36.03300000     -69.99170000
C      -43.22120000     -32.52410000     -70.19700000
C      -44.07560000     -31.97310000     -72.30360000
C      -43.90000000     -30.69740000     -71.67710000
S      -42.66730000     -33.75210000     -69.06070000
S      -43.45540000     -30.82080000     -69.97680000
H      -44.20570000     -29.72650000     -72.10110000
