40
Properties=species:S:1:pos:R:3 #=T CELL(abcABC):=T 1.889726e+02=T 90.00000=T Traj:=T positionsangstrom=T Step:=T 0=T Bead:=T pbc="F F F"
C      -44.18350000     -35.33740000     -72.86660000
C      -44.32360000     -34.29910000     -73.72850000
C      -43.68000000     -33.07960000     -73.47050000
C      -42.94780000     -32.94840000     -72.33090000
C      -42.90480000     -33.95530000     -71.33320000
C      -43.58730000     -35.10970000     -71.65110000
H      -44.71000000     -36.33460000     -72.99000000
H      -43.59310000     -32.34280000     -74.32960000
H      -42.35060000     -33.80290000     -70.43230000
H      -43.55770000     -35.89180000     -70.97170000
C      -42.22980000     -31.66950000     -71.98740000
H      -42.09960000     -30.94720000     -72.83420000
H      -41.18300000     -31.87980000     -71.65780000
C      -45.19600000     -34.34110000     -74.98380000
H      -44.97070000     -33.50730000     -75.62850000
H      -45.11490000     -35.27720000     -75.46100000
S      -43.05730000     -30.79630000     -70.59760000
S      -46.97590000     -34.16740000     -74.55900000
C      -44.78300000     -30.63620000     -71.25320000
H      -44.87010000     -29.83530000     -71.98350000
H      -44.92370000     -31.52340000     -71.81140000
C      -46.93730000     -32.71730000     -73.49940000
H      -47.16750000     -31.75580000     -73.97720000
H      -45.92190000     -32.51890000     -73.15390000
C      -47.85280000     -32.84370000     -72.30120000
H      -48.05980000     -31.82960000     -71.86980000
H      -48.85270000     -33.30670000     -72.57950000
C      -45.89860000     -30.61140000     -70.08370000
H      -46.83990000     -30.34210000     -70.50350000
H      -45.57230000     -29.89560000     -69.31110000
C      -45.85420000     -32.03450000     -69.34110000
C      -45.33330000     -32.29110000     -68.12310000
C      -46.35040000     -33.27580000     -70.05290000
H      -45.06330000     -31.49340000     -67.47440000
C      -46.08860000     -34.42090000     -69.32190000
C      -47.23460000     -33.69710000     -71.16170000
C      -47.55300000     -35.04780000     -71.11890000
S      -45.36350000     -34.00930000     -67.73360000
S      -46.88180000     -35.91080000     -69.86270000
H      -48.14200000     -35.64710000     -71.83890000
