40
Properties=species:S:1:pos:R:3 #=T CELL(abcABC):=T 1.889726e+02=T 90.00000=T Traj:=T positionsangstrom=T Step:=T 0=T Bead:=T pbc="F F F"
C      -44.84710000     -35.41660000     -70.03700000
C      -44.77420000     -34.17560000     -69.47860000
C      -45.86880000     -33.40480000     -69.20920000
C      -47.09440000     -33.86070000     -69.53570000
C      -47.20100000     -35.10120000     -70.20630000
C      -46.08660000     -35.91930000     -70.33310000
H      -43.93560000     -35.95520000     -70.14770000
H      -45.69290000     -32.51120000     -68.63330000
H      -48.12380000     -35.47570000     -70.54630000
H      -46.19030000     -36.89060000     -70.84530000
C      -48.28540000     -32.92840000     -69.36630000
H      -48.12910000     -32.18280000     -68.64840000
H      -49.16620000     -33.48760000     -69.09330000
C      -43.43260000     -33.78010000     -68.88770000
H      -43.29110000     -34.00190000     -67.79160000
H      -42.62180000     -34.38330000     -69.30770000
S      -48.60200000     -31.87500000     -70.91140000
S      -43.09200000     -31.90540000     -68.98910000
C      -46.94920000     -31.00010000     -71.03480000
H      -47.25960000     -29.90890000     -70.96260000
H      -46.31850000     -31.34890000     -70.23540000
C      -42.01780000     -31.79020000     -70.50040000
H      -41.26240000     -32.63620000     -70.64820000
H      -41.50880000     -30.80770000     -70.34810000
C      -42.89860000     -31.56320000     -71.80260000
H      -43.72130000     -30.88220000     -71.46980000
H      -42.22680000     -31.11550000     -72.55860000
C      -46.31220000     -31.04620000     -72.43620000
H      -45.40090000     -30.43670000     -72.51090000
H      -46.94390000     -30.58550000     -73.20650000
C      -46.10300000     -32.46600000     -72.83840000
C      -47.11680000     -33.21930000     -73.45730000
C      -44.85140000     -33.25600000     -72.65580000
H      -48.12140000     -32.87640000     -73.62550000
C      -44.96290000     -34.52800000     -73.14140000
C      -43.42060000     -32.87480000     -72.30210000
C      -42.61430000     -33.98960000     -72.50500000
S      -46.53990000     -34.84300000     -73.88670000
S      -43.38170000     -35.46500000     -73.10980000
H      -41.54760000     -34.06770000     -72.22020000
