40
Properties=species:S:1:pos:R:3 #=T CELL(abcABC):=T 1.889726e+02=T 90.00000=T Traj:=T positionsangstrom=T Step:=T 0=T Bead:=T pbc="F F F"
C      -44.76090000     -35.47290000     -69.74820000
C      -44.48290000     -34.18700000     -69.19420000
C      -45.60090000     -33.30370000     -69.10000000
C      -46.87250000     -33.78790000     -69.40780000
C      -47.07010000     -34.92570000     -70.12840000
C      -45.96170000     -35.71110000     -70.35300000
H      -43.98270000     -36.19210000     -69.79700000
H      -45.61620000     -32.36710000     -68.52870000
H      -48.05460000     -35.13310000     -70.37310000
H      -46.00230000     -36.60220000     -70.98720000
C      -48.03660000     -32.79150000     -69.18350000
H      -47.75870000     -32.14170000     -68.32230000
H      -49.10480000     -33.16560000     -68.97610000
C      -43.14970000     -33.76600000     -68.74320000
H      -42.97600000     -34.02910000     -67.70740000
H      -42.32320000     -34.28060000     -69.27410000
S      -48.34360000     -31.64730000     -70.65860000
S      -42.89260000     -31.94050000     -69.01260000
C      -46.72480000     -30.83340000     -71.02920000
H      -46.76540000     -29.77720000     -70.67430000
H      -45.95330000     -31.36510000     -70.47510000
C      -42.20120000     -31.94970000     -70.65800000
H      -41.62300000     -32.83400000     -70.72230000
H      -41.50180000     -31.20620000     -70.71200000
C      -43.02720000     -31.84470000     -71.87370000
H      -43.89110000     -31.21390000     -71.81940000
H      -42.47710000     -31.53710000     -72.70070000
C      -46.37360000     -31.00210000     -72.55090000
H      -45.44430000     -30.34830000     -72.69890000
H      -47.18860000     -30.59190000     -73.19060000
C      -46.12450000     -32.46440000     -72.91200000
C      -47.21660000     -33.14970000     -73.41410000
C      -44.95770000     -33.37380000     -72.85240000
H      -48.21380000     -32.78750000     -73.67810000
C      -45.19250000     -34.58400000     -73.45030000
C      -43.60230000     -33.20880000     -72.32000000
C      -42.85290000     -34.27960000     -72.64940000
S      -46.84630000     -34.73490000     -73.98700000
S      -43.79160000     -35.62910000     -73.29460000
H      -41.85050000     -34.56140000     -72.29160000
