40
Properties=species:S:1:pos:R:3 #=T CELL(abcABC):=T 1.889726e+02=T 90.00000=T Traj:=T positionsangstrom=T Step:=T 0=T Bead:=T pbc="F F F"
C      -42.37020000     -32.83290000     -73.53690000
C      -43.18900000     -32.16220000     -72.63850000
C      -43.12860000     -32.49520000     -71.25400000
C      -42.21940000     -33.41890000     -70.76360000
C      -41.34160000     -34.09830000     -71.73420000
C      -41.51220000     -33.83090000     -73.08680000
H      -42.48380000     -32.63820000     -74.57300000
H      -43.83480000     -32.06260000     -70.52100000
H      -40.66880000     -34.88360000     -71.41930000
H      -40.80860000     -34.23260000     -73.81310000
C      -42.06390000     -33.70280000     -69.26510000
H      -42.76070000     -33.03930000     -68.78390000
H      -41.02540000     -33.51010000     -69.09000000
C      -44.22550000     -31.15680000     -73.09220000
H      -44.99430000     -30.97270000     -72.29310000
H      -43.66470000     -30.21560000     -73.09190000
S      -42.59150000     -35.42690000     -68.77980000
S      -45.03510000     -31.42290000     -74.65340000
C      -44.34830000     -35.09180000     -68.47370000
H      -44.79480000     -35.97620000     -68.00020000
H      -44.43800000     -34.21890000     -67.88240000
C      -45.75480000     -33.19570000     -74.55950000
H      -45.21050000     -33.82950000     -75.24120000
H      -46.76480000     -33.07530000     -74.99600000
C      -45.94740000     -33.92820000     -73.25720000
H      -46.15610000     -34.95650000     -73.51150000
H      -44.94980000     -33.92930000     -72.65900000
C      -45.04570000     -34.98500000     -69.85990000
H      -45.16780000     -36.00080000     -70.30750000
H      -44.47900000     -34.41420000     -70.57710000
C      -46.47580000     -34.50480000     -69.88910000
C      -47.23910000     -34.60310000     -68.71820000
C      -47.13450000     -33.61900000     -70.86730000
H      -46.98910000     -35.08760000     -67.74760000
C      -48.28840000     -33.06730000     -70.37440000
C      -47.00420000     -33.39230000     -72.32410000
C      -48.06260000     -32.65390000     -72.83370000
S      -48.80560000     -33.73470000     -68.83150000
S      -49.18050000     -32.10660000     -71.60030000
H      -48.14470000     -32.13670000     -73.71400000
