40
Properties=species:S:1:pos:R:3 #=T CELL(abcABC):=T 1.889726e+02=T 90.00000=T Traj:=T positionsangstrom=T Step:=T 0=T Bead:=T pbc="F F F"
C      -44.83910000     -35.52080000     -70.03660000
C      -44.71390000     -34.24680000     -69.50500000
C      -45.80440000     -33.42250000     -69.33430000
C      -47.11080000     -33.81720000     -69.62640000
C      -47.20120000     -35.06490000     -70.16460000
C      -46.09830000     -35.87730000     -70.45970000
H      -43.90470000     -36.13480000     -70.15320000
H      -45.68890000     -32.48330000     -68.78370000
H      -48.24510000     -35.43830000     -70.36960000
H      -46.32810000     -36.80370000     -70.84190000
C      -48.26160000     -32.94390000     -69.41710000
H      -48.15340000     -32.37440000     -68.53110000
H      -49.22490000     -33.41350000     -69.41540000
C      -43.40830000     -33.78970000     -68.86080000
H      -43.46030000     -34.30290000     -67.87990000
H      -42.54090000     -34.30690000     -69.30820000
S      -48.56230000     -31.74020000     -70.84210000
S      -43.06960000     -31.97050000     -68.74850000
C      -46.95650000     -30.99480000     -71.25730000
H      -46.88720000     -29.93120000     -70.98160000
H      -46.16040000     -31.62280000     -70.71190000
C      -42.32900000     -31.61870000     -70.36960000
H      -41.62830000     -32.48670000     -70.51300000
H      -41.62060000     -30.67000000     -70.35390000
C      -43.33030000     -31.46670000     -71.57470000
H      -44.22680000     -30.94170000     -71.36050000
H      -42.85860000     -30.74600000     -72.28710000
C      -46.62090000     -31.19670000     -72.69660000
H      -45.83060000     -30.49660000     -73.01460000
H      -47.44810000     -31.10460000     -73.38600000
C      -46.17710000     -32.58580000     -73.02150000
C      -47.06350000     -33.54010000     -73.57160000
C      -44.86150000     -33.15400000     -72.86260000
H      -48.11270000     -33.31110000     -73.77130000
C      -44.78580000     -34.46880000     -73.32070000
C      -43.59660000     -32.76190000     -72.31420000
C      -42.68680000     -33.76100000     -72.25910000
S      -46.29930000     -35.10680000     -73.90180000
S      -43.22660000     -35.28480000     -73.03170000
H      -41.68790000     -33.59460000     -71.98110000
