40
Properties=species:S:1:pos:R:3 #=T CELL(abcABC):=T 1.889726e+02=T 90.00000=T Traj:=T positionsangstrom=T Step:=T 0=T Bead:=T pbc="F F F"
C      -45.01320000     -35.32670000     -70.06730000
C      -44.73250000     -34.16790000     -69.39330000
C      -45.78960000     -33.29640000     -69.10340000
C      -47.06050000     -33.61540000     -69.52750000
C      -47.32930000     -34.73130000     -70.31890000
C      -46.26310000     -35.59870000     -70.58430000
H      -44.28150000     -36.11750000     -70.22210000
H      -45.66620000     -32.34590000     -68.59020000
H      -48.32850000     -34.85070000     -70.65150000
H      -46.34280000     -36.59490000     -71.07540000
C      -48.25890000     -32.70460000     -69.38250000
H      -48.07070000     -31.94960000     -68.60570000
H      -49.15960000     -33.26320000     -69.08970000
C      -43.39340000     -33.90370000     -68.91560000
H      -43.18140000     -34.31580000     -67.88730000
H      -42.72680000     -34.41840000     -69.62970000
S      -48.66750000     -31.95130000     -71.01550000
S      -42.99560000     -32.09880000     -68.58570000
C      -47.10810000     -31.05600000     -71.40300000
H      -47.18190000     -29.90900000     -71.35080000
H      -46.37990000     -31.28860000     -70.60950000
C      -42.50150000     -31.36300000     -70.24190000
H      -41.45180000     -31.68710000     -70.59130000
H      -42.46630000     -30.31720000     -69.99870000
C      -43.53960000     -31.48730000     -71.31760000
H      -44.55590000     -31.40540000     -70.83520000
H      -43.45180000     -30.68290000     -72.06750000
C      -46.55960000     -31.30340000     -72.79080000
H      -45.72650000     -30.65860000     -72.98080000
H      -47.27200000     -31.10770000     -73.57130000
C      -46.18170000     -32.75870000     -73.00680000
C      -46.95920000     -33.65650000     -73.63900000
C      -44.81250000     -33.25410000     -72.74140000
H      -47.94170000     -33.38410000     -74.05620000
C      -44.65090000     -34.57370000     -73.31650000
C      -43.57330000     -32.86500000     -72.04890000
C      -42.62500000     -33.77210000     -72.20530000
S      -46.11790000     -35.18510000     -74.07780000
S      -43.13280000     -35.23610000     -73.08370000
H      -41.55180000     -33.62820000     -71.97020000
