40
Properties=species:S:1:pos:R:3 #=T CELL(abcABC):=T 1.889726e+02=T 90.00000=T Traj:=T positionsangstrom=T Step:=T 0=T Bead:=T pbc="F F F"
C      -44.96280000     -35.34150000     -70.11760000
C      -44.72540000     -34.14890000     -69.37880000
C      -45.84390000     -33.37520000     -69.05010000
C      -47.07450000     -33.62330000     -69.68250000
C      -47.31630000     -34.85800000     -70.31260000
C      -46.22850000     -35.73660000     -70.49520000
H      -44.16460000     -35.99640000     -70.45090000
H      -45.75870000     -32.49760000     -68.38720000
H      -48.31170000     -35.13140000     -70.64990000
H      -46.34690000     -36.70250000     -71.02480000
C      -48.20350000     -32.67040000     -69.45040000
H      -48.00780000     -31.81890000     -68.84920000
H      -49.05000000     -33.16040000     -68.94790000
C      -43.36560000     -33.93010000     -68.71020000
H      -43.46180000     -34.28890000     -67.70810000
H      -42.60450000     -34.52520000     -69.21600000
S      -48.83880000     -31.91990000     -71.04690000
S      -42.93690000     -32.14650000     -68.46020000
C      -47.32600000     -30.99750000     -71.48130000
H      -47.54690000     -29.90760000     -71.35850000
H      -46.66720000     -31.28180000     -70.71720000
C      -42.38310000     -31.59060000     -70.19210000
H      -41.55360000     -32.22120000     -70.48830000
H      -41.82380000     -30.62540000     -70.12800000
C      -43.46180000     -31.51540000     -71.24030000
H      -44.42450000     -31.23550000     -70.84820000
H      -43.17690000     -30.60320000     -71.81640000
C      -46.67020000     -31.28940000     -72.86330000
H      -45.86680000     -30.53470000     -72.90990000
H      -47.39130000     -30.91210000     -73.61840000
C      -46.13410000     -32.70920000     -73.10160000
C      -46.89570000     -33.56620000     -73.79310000
C      -44.77130000     -33.17030000     -72.84210000
H      -47.87260000     -33.42520000     -74.21020000
C      -44.60590000     -34.42380000     -73.44380000
C      -43.58980000     -32.85920000     -72.05460000
C      -42.63470000     -33.80080000     -72.10280000
S      -46.06970000     -35.11630000     -74.11520000
S      -43.13170000     -35.20170000     -73.04610000
H      -41.58610000     -33.77260000     -71.77730000
