40
Properties=species:S:1:pos:R:3 #=T CELL(abcABC):=T 1.889726e+02=T 90.00000=T Traj:=T positionsangstrom=T Step:=T 0=T Bead:=T pbc="F F F"
C      -44.42310000     -33.23200000     -75.00510000
C      -43.64510000     -34.11870000     -74.21340000
C      -42.73820000     -33.62540000     -73.26730000
C      -42.60690000     -32.27070000     -72.96020000
C      -43.20530000     -31.42800000     -73.91190000
C      -44.15120000     -31.86350000     -74.85560000
H      -45.22280000     -33.62780000     -75.64960000
H      -42.09860000     -34.22820000     -72.64280000
H      -43.08890000     -30.35620000     -73.77940000
H      -44.67490000     -31.15500000     -75.41110000
C      -41.58760000     -31.76250000     -71.95560000
H      -41.41860000     -30.68660000     -71.92470000
H      -40.64910000     -32.23640000     -72.18160000
C      -43.81700000     -35.58020000     -74.31430000
H      -44.60190000     -35.88400000     -75.09750000
H      -42.88340000     -36.06220000     -74.51100000
S      -41.86470000     -32.34050000     -70.25960000
S      -44.35440000     -36.39970000     -72.72240000
C      -43.55870000     -31.75240000     -69.92830000
H      -43.59080000     -31.53390000     -68.88500000
H      -43.80420000     -30.84200000     -70.45260000
C      -45.82600000     -35.38930000     -72.18870000
H      -46.70210000     -35.53330000     -72.84290000
H      -45.72090000     -34.33260000     -72.30650000
C      -46.11460000     -35.71340000     -70.80510000
H      -46.71030000     -36.65240000     -70.78620000
H      -45.22410000     -35.72610000     -70.09660000
C      -44.56350000     -32.77320000     -70.29330000
H      -44.32010000     -33.72030000     -69.83520000
H      -44.53910000     -32.96240000     -71.38590000
C      -45.95990000     -32.49240000     -69.73570000
C      -46.33090000     -31.30000000     -69.12140000
C      -47.10130000     -33.35510000     -69.92940000
H      -45.65440000     -30.58240000     -68.69090000
C      -48.28340000     -32.88330000     -69.38520000
C      -47.20880000     -34.75450000     -70.31160000
C      -48.52760000     -35.22280000     -70.24250000
S      -48.09930000     -31.29000000     -68.70140000
S      -49.61230000     -33.95950000     -69.68760000
H      -48.72760000     -36.13140000     -70.82450000
