40
Properties=species:S:1:pos:R:3 #=T CELL(abcABC):=T 1.889726e+02=T 90.00000=T Traj:=T positionsangstrom=T Step:=T 0=T Bead:=T pbc="F F F"
C      -44.27860000     -33.48860000     -75.07260000
C      -43.51010000     -34.22860000     -74.19380000
C      -42.85940000     -33.56060000     -73.10950000
C      -42.77570000     -32.15550000     -73.06020000
C      -43.49730000     -31.41900000     -74.07680000
C      -44.29740000     -32.06480000     -75.02510000
H      -44.86050000     -33.98490000     -75.81420000
H      -42.24580000     -34.12790000     -72.37430000
H      -43.51630000     -30.32910000     -74.04250000
H      -44.96830000     -31.59290000     -75.80020000
C      -41.90360000     -31.36270000     -72.09420000
H      -42.18150000     -30.33240000     -72.10040000
H      -40.87010000     -31.35490000     -72.46770000
C      -43.39960000     -35.71160000     -74.21900000
H      -43.64820000     -36.05500000     -75.24210000
H      -42.41660000     -36.15980000     -74.02810000
S      -41.85630000     -32.03650000     -70.34760000
S      -44.49220000     -36.62910000     -73.05230000
C      -43.56110000     -31.62770000     -69.72820000
H      -43.47050000     -31.09950000     -68.75000000
H      -43.95550000     -30.81000000     -70.35880000
C      -45.87550000     -35.47680000     -72.43760000
H      -46.76640000     -35.83300000     -72.81560000
H      -45.63270000     -34.47860000     -72.77860000
C      -46.02570000     -35.65020000     -70.92250000
H      -46.10110000     -36.61540000     -70.60480000
H      -45.10460000     -35.37320000     -70.39730000
C      -44.40870000     -32.86090000     -69.59690000
H      -44.04380000     -33.51180000     -68.84500000
H      -44.35840000     -33.44090000     -70.51010000
C      -45.88940000     -32.49800000     -69.39110000
C      -46.34370000     -31.33840000     -68.84030000
C      -47.01840000     -33.39990000     -69.71700000
H      -45.74630000     -30.48610000     -68.68470000
C      -48.29940000     -32.87140000     -69.43620000
C      -47.15050000     -34.74260000     -70.43410000
C      -48.45450000     -35.16550000     -70.42450000
S      -48.10100000     -31.31590000     -68.61560000
S      -49.54620000     -33.98550000     -69.62930000
H      -48.87570000     -36.13850000     -70.66620000
