40
Properties=species:S:1:pos:R:3 #=T CELL(abcABC):=T 1.889726e+02=T 90.00000=T Traj:=T positionsangstrom=T Step:=T 0=T Bead:=T pbc="F F F"
C      -42.43970000     -32.75630000     -73.59590000
C      -43.23290000     -32.11710000     -72.64400000
C      -43.03070000     -32.40380000     -71.27000000
C      -42.06920000     -33.38310000     -70.86550000
C      -41.40380000     -34.12860000     -71.86310000
C      -41.56940000     -33.77180000     -73.18620000
H      -42.51770000     -32.57390000     -74.63470000
H      -43.56050000     -31.88390000     -70.49010000
H      -40.63790000     -34.88430000     -71.52480000
H      -40.99470000     -34.29080000     -73.86430000
C      -41.78860000     -33.70170000     -69.45290000
H      -42.08560000     -32.86020000     -68.78010000
H      -40.57270000     -33.82470000     -69.27160000
C      -44.38260000     -31.19140000     -73.03830000
H      -45.14180000     -31.30470000     -72.28500000
H      -44.10650000     -30.12890000     -73.03710000
S      -42.51800000     -35.25790000     -68.74240000
S      -45.08440000     -31.65790000     -74.75440000
C      -44.40720000     -35.10780000     -68.70530000
H      -44.73510000     -35.86830000     -67.97860000
H      -44.53910000     -34.11150000     -68.23410000
C      -45.63550000     -33.42270000     -74.44540000
H      -44.98680000     -34.20680000     -75.01560000
H      -46.57800000     -33.46560000     -74.99560000
C      -45.83060000     -33.78110000     -73.02940000
H      -46.13100000     -34.86250000     -73.17190000
H      -44.91720000     -33.81360000     -72.51080000
C      -45.13150000     -35.02970000     -70.11460000
H      -45.07920000     -35.95940000     -70.65830000
H      -44.60710000     -34.25590000     -70.69650000
C      -46.49320000     -34.45620000     -69.86170000
C      -47.25560000     -34.52140000     -68.67300000
C      -47.24650000     -33.70360000     -70.84050000
H      -46.88010000     -35.04890000     -67.82600000
C      -48.51560000     -33.31180000     -70.40650000
C      -46.93620000     -33.18800000     -72.22750000
C      -47.89800000     -32.32250000     -72.65290000
S      -48.76900000     -33.71290000     -68.72070000
S      -49.31560000     -32.23200000     -71.51040000
H      -47.90410000     -31.69440000     -73.50610000
