40
Properties=species:S:1:pos:R:3 #=T CELL(abcABC):=T 1.889726e+02=T 90.00000=T Traj:=T positionsangstrom=T Step:=T 0=T Bead:=T pbc="F F F"
C      -44.21480000     -33.47530000     -75.05750000
C      -43.46160000     -34.17840000     -74.09150000
C      -42.72840000     -33.46030000     -73.17760000
C      -42.81890000     -32.02990000     -73.15130000
C      -43.71600000     -31.35630000     -73.97250000
C      -44.32360000     -32.09780000     -74.99760000
H      -44.61210000     -34.03490000     -75.88120000
H      -42.16280000     -34.00540000     -72.45430000
H      -43.85320000     -30.26040000     -73.80860000
H      -44.91460000     -31.57780000     -75.72700000
C      -42.01150000     -31.25600000     -72.16880000
H      -42.47950000     -30.23920000     -72.19380000
H      -40.99010000     -31.24780000     -72.56980000
C      -43.46150000     -35.70050000     -74.19910000
H      -43.72680000     -36.04520000     -75.21960000
H      -42.47530000     -36.04010000     -73.96460000
S      -41.83000000     -31.86920000     -70.39450000
S      -44.65220000     -36.57930000     -73.03900000
C      -43.56480000     -31.60630000     -69.65120000
H      -43.44980000     -31.45620000     -68.59260000
H      -43.89170000     -30.75840000     -70.17090000
C      -45.80630000     -35.39020000     -72.37920000
H      -46.77310000     -35.45340000     -72.94010000
H      -45.51000000     -34.28620000     -72.53270000
C      -46.07490000     -35.65680000     -70.85450000
H      -46.34510000     -36.76270000     -70.81770000
H      -45.13310000     -35.49070000     -70.17300000
C      -44.46360000     -32.88660000     -69.82290000
H      -43.91690000     -33.75500000     -69.35960000
H      -44.54120000     -33.09680000     -70.93370000
C      -45.86340000     -32.66380000     -69.38400000
C      -46.29460000     -31.49400000     -68.83890000
C      -46.93350000     -33.56070000     -69.66790000
H      -45.69100000     -30.61540000     -68.57940000
C      -48.17050000     -32.98850000     -69.38240000
C      -47.10530000     -34.83160000     -70.29720000
C      -48.37650000     -35.24220000     -70.35870000
S      -48.03550000     -31.40930000     -68.56340000
S      -49.52310000     -34.03550000     -69.74680000
H      -48.75490000     -35.93560000     -71.10800000
