40
Properties=species:S:1:pos:R:3 #=T CELL(abcABC):=T 1.889726e+02=T 90.00000=T Traj:=T positionsangstrom=T Step:=T 0=T Bead:=T pbc="F F F"
C      -44.24090000     -33.68320000     -74.89930000
C      -43.16050000     -34.12710000     -74.11780000
C      -42.49490000     -33.22430000     -73.30580000
C      -42.93360000     -31.85690000     -73.22730000
C      -44.06770000     -31.50120000     -73.94420000
C      -44.70600000     -32.41420000     -74.80150000
H      -44.67670000     -34.44090000     -75.59390000
H      -41.65710000     -33.48510000     -72.56860000
H      -44.39060000     -30.45680000     -73.78890000
H      -45.60970000     -32.09850000     -75.40290000
C      -42.31030000     -30.86900000     -72.24520000
H      -43.07740000     -30.10600000     -72.10310000
H      -41.34470000     -30.46520000     -72.61090000
C      -42.91350000     -35.62340000     -74.04640000
H      -42.85380000     -35.90390000     -75.11770000
H      -42.01620000     -35.83470000     -73.48940000
S      -41.91470000     -31.63860000     -70.55650000
S      -44.36480000     -36.49190000     -73.17780000
C      -43.47300000     -31.60410000     -69.70630000
H      -43.23930000     -31.55580000     -68.62790000
H      -44.10460000     -30.71920000     -70.01060000
C      -45.61560000     -35.24350000     -72.35990000
H      -46.37470000     -35.05970000     -73.13330000
H      -45.05780000     -34.34060000     -72.30270000
C      -46.05810000     -35.76100000     -70.99980000
H      -46.37860000     -36.80990000     -71.09050000
H      -45.24440000     -35.81430000     -70.28670000
C      -44.45440000     -32.76450000     -70.11710000
H      -44.06470000     -33.69560000     -69.74710000
H      -44.31630000     -32.93980000     -71.22180000
C      -45.93670000     -32.60470000     -69.62830000
C      -46.40230000     -31.55890000     -68.88280000
C      -47.02520000     -33.59970000     -69.76610000
H      -45.78850000     -30.67020000     -68.87670000
C      -48.19550000     -33.15050000     -69.19700000
C      -47.18980000     -34.93260000     -70.37430000
C      -48.52700000     -35.32180000     -70.30630000
S      -48.11170000     -31.57180000     -68.40070000
S      -49.53260000     -34.21710000     -69.44740000
H      -48.99100000     -36.24750000     -70.55470000
