40
Properties=species:S:1:pos:R:3 #=T CELL(abcABC):=T 1.889726e+02=T 90.00000=T Traj:=T positionsangstrom=T Step:=T 0=T Bead:=T pbc="F F F"
C      -44.60300000     -33.14800000     -74.45000000
C      -43.68090000     -34.04740000     -74.01190000
C      -42.53380000     -33.55690000     -73.26930000
C      -42.32820000     -32.21680000     -72.96810000
C      -43.27990000     -31.30610000     -73.53530000
C      -44.35760000     -31.76530000     -74.30410000
H      -45.51770000     -33.44730000     -74.91950000
H      -41.86660000     -34.28290000     -72.82360000
H      -43.28830000     -30.24700000     -73.35690000
H      -45.14320000     -31.06740000     -74.52460000
C      -41.28030000     -31.83150000     -71.98440000
H      -41.26470000     -30.76400000     -71.90880000
H      -40.27770000     -32.24170000     -72.32660000
C      -43.89910000     -35.52110000     -74.17520000
H      -44.49930000     -35.66310000     -75.04570000
H      -42.84980000     -35.97510000     -74.40650000
S      -41.74770000     -32.43740000     -70.24530000
S      -44.41360000     -36.41880000     -72.60020000
C      -43.48330000     -31.90970000     -70.01480000
H      -43.62800000     -31.82430000     -68.93980000
H      -43.61410000     -30.92080000     -70.39490000
C      -46.04410000     -35.64760000     -72.34460000
H      -46.77310000     -36.10990000     -73.03430000
H      -45.88820000     -34.58060000     -72.60810000
C      -46.42690000     -35.81280000     -70.88150000
H      -46.80770000     -36.82050000     -70.60750000
H      -45.63320000     -35.80170000     -70.18130000
C      -44.49680000     -32.93510000     -70.45440000
H      -44.23790000     -33.85860000     -69.89870000
H      -44.41470000     -33.19830000     -71.50750000
C      -45.93460000     -32.55650000     -70.08970000
C      -46.27480000     -31.33000000     -69.66170000
C      -47.11720000     -33.42620000     -70.00720000
H      -45.63190000     -30.41200000     -69.79400000
C      -48.26710000     -32.82230000     -69.53830000
C      -47.36630000     -34.78300000     -70.39130000
C      -48.67800000     -35.22230000     -70.19340000
S      -47.96170000     -31.10340000     -69.20610000
S      -49.63180000     -33.87230000     -69.40650000
H      -49.08560000     -36.23360000     -70.03750000
