40
Properties=species:S:1:pos:R:3 #=T CELL(abcABC):=T 1.889726e+02=T 90.00000=T Traj:=T positionsangstrom=T Step:=T 0=T Bead:=T pbc="F F F"
C      -41.65140000     -33.00550000     -70.61250000
C      -41.93150000     -33.46960000     -71.96600000
C      -42.56220000     -34.70920000     -72.17590000
C      -42.89760000     -35.51430000     -71.08220000
C      -42.58090000     -35.06320000     -69.76830000
C      -41.99200000     -33.84920000     -69.49720000
H      -41.14990000     -32.09210000     -70.43190000
H      -42.68690000     -35.12830000     -73.15630000
H      -42.82320000     -35.78020000     -68.97200000
H      -41.61010000     -33.61620000     -68.47620000
C      -43.63470000     -36.84780000     -71.27710000
H      -42.94670000     -37.69650000     -71.14740000
H      -43.96430000     -36.89230000     -72.36880000
C      -41.73370000     -32.47360000     -73.11840000
H      -41.95390000     -31.42140000     -72.85290000
H      -40.64920000     -32.51790000     -73.31920000
S      -45.10580000     -37.11220000     -70.22120000
S      -42.97740000     -32.82790000     -74.44040000
C      -46.16060000     -35.68550000     -70.59360000
H      -46.38780000     -35.48150000     -71.72120000
H      -47.11310000     -36.04610000     -70.22000000
C      -44.48370000     -31.84080000     -73.89320000
H      -45.16810000     -31.79310000     -74.77130000
H      -44.24830000     -30.79510000     -73.69670000
C      -45.15290000     -32.48440000     -72.64250000
H      -45.57340000     -33.47820000     -72.89320000
H      -44.42450000     -32.70010000     -71.85560000
C      -45.89300000     -34.46770000     -69.79570000
H      -45.00160000     -33.96260000     -70.08350000
H      -45.71050000     -34.75590000     -68.78040000
C      -47.05100000     -33.47740000     -69.82090000
C      -48.04990000     -33.36830000     -68.92330000
C      -47.17300000     -32.41140000     -70.86010000
H      -48.22750000     -34.00790000     -68.09580000
C      -48.34520000     -31.72210000     -70.74150000
C      -46.43710000     -31.92260000     -72.06180000
C      -46.99980000     -30.82410000     -72.64270000
S      -49.23930000     -32.15710000     -69.27990000
S      -48.55530000     -30.34090000     -71.87620000
H      -46.66090000     -30.32460000     -73.50210000
