40
Properties=species:S:1:pos:R:3 #=T CELL(abcABC):=T 1.889726e+02=T 90.00000=T Traj:=T positionsangstrom=T Step:=T 0=T Bead:=T pbc="F F F"
C      -44.40140000     -33.99930000     -75.08050000
C      -43.80380000     -34.79960000     -74.13810000
C      -42.75590000     -34.19880000     -73.35050000
C      -42.53810000     -32.82080000     -73.22710000
C      -43.16580000     -32.05570000     -74.23180000
C      -44.12280000     -32.61910000     -75.12580000
H      -45.09060000     -34.44530000     -75.82670000
H      -42.14120000     -34.91000000     -72.83510000
H      -43.17420000     -30.95580000     -74.10570000
H      -44.53760000     -32.02730000     -75.92330000
C      -41.53500000     -32.23750000     -72.22780000
H      -41.66460000     -31.17600000     -72.25460000
H      -40.48330000     -32.48720000     -72.58050000
C      -44.07280000     -36.25720000     -73.92710000
H      -44.76640000     -36.54560000     -74.63460000
H      -43.21960000     -36.93470000     -73.99410000
S      -41.79600000     -32.96470000     -70.52960000
S      -44.61480000     -36.65750000     -72.19140000
C      -43.27510000     -32.11630000     -69.93840000
H      -43.02960000     -31.87500000     -68.92180000
H      -43.41250000     -31.12000000     -70.41410000
C      -46.05420000     -35.42830000     -71.99260000
H      -46.76810000     -35.74620000     -72.78500000
H      -45.73190000     -34.42700000     -72.19260000
C      -46.77640000     -35.41900000     -70.64310000
H      -47.53530000     -36.28780000     -70.54750000
H      -46.13350000     -35.64030000     -69.77360000
C      -44.51350000     -32.88530000     -70.19990000
H      -44.40080000     -33.94010000     -69.86540000
H      -44.60820000     -32.83550000     -71.26990000
C      -45.78690000     -32.30590000     -69.75610000
C      -45.85110000     -31.02450000     -69.27390000
C      -47.09840000     -32.90640000     -69.86100000
H      -44.93870000     -30.36650000     -69.17500000
C      -48.09690000     -32.05610000     -69.40410000
C      -47.62120000     -34.24500000     -70.25910000
C      -48.98140000     -34.39020000     -70.11520000
S      -47.50630000     -30.44420000     -69.14890000
S      -49.66430000     -32.93230000     -69.37920000
H      -49.55350000     -35.28210000     -70.18360000
