40
Properties=species:S:1:pos:R:3 #=T CELL(abcABC):=T 1.889726e+02=T 90.00000=T Traj:=T positionsangstrom=T Step:=T 0=T Bead:=T pbc="F F F"
C      -44.72130000     -33.05650000     -74.53820000
C      -43.95140000     -34.14600000     -74.12680000
C      -42.78150000     -33.85560000     -73.32820000
C      -42.50620000     -32.57090000     -72.84930000
C      -43.33300000     -31.55380000     -73.21120000
C      -44.38800000     -31.77850000     -74.13050000
H      -45.53120000     -33.25590000     -75.15400000
H      -42.18770000     -34.75510000     -73.02910000
H      -43.18200000     -30.55270000     -72.75410000
H      -44.98650000     -30.92320000     -74.41370000
C      -41.40050000     -32.26930000     -71.84460000
H      -40.97910000     -31.27530000     -72.01030000
H      -40.54230000     -33.03080000     -72.01630000
C      -44.31480000     -35.55220000     -74.49500000
H      -45.16430000     -35.58560000     -75.12560000
H      -43.41830000     -36.17940000     -74.88260000
S      -41.71350000     -32.49090000     -69.97700000
S      -44.74450000     -36.69630000     -72.97970000
C      -43.33320000     -31.69760000     -69.77110000
H      -43.50710000     -31.32870000     -68.82100000
H      -43.36290000     -30.74560000     -70.40960000
C      -45.84660000     -35.65870000     -72.01550000
H      -46.90230000     -35.81710000     -72.42810000
H      -45.59130000     -34.66870000     -72.30220000
C      -45.96200000     -35.63980000     -70.49190000
H      -46.07340000     -36.56810000     -69.87510000
H      -45.13740000     -35.22400000     -69.87740000
C      -44.46150000     -32.73100000     -70.13630000
H      -44.29060000     -33.55410000     -69.38800000
H      -44.20800000     -33.15410000     -71.09530000
C      -45.88920000     -32.33810000     -70.03140000
C      -46.23570000     -31.03330000     -69.84510000
C      -46.95260000     -33.30180000     -69.95090000
H      -45.57800000     -30.26240000     -69.95710000
C      -48.14570000     -32.67820000     -69.66100000
C      -47.08070000     -34.70680000     -70.03750000
C      -48.38410000     -35.11400000     -69.92820000
S      -47.95950000     -30.90850000     -69.66060000
S      -49.50960000     -33.80520000     -69.63750000
H      -48.63930000     -36.23760000     -69.86330000
