40
Properties=species:S:1:pos:R:3 #=T CELL(abcABC):=T 1.889726e+02=T 90.00000=T Traj:=T positionsangstrom=T Step:=T 0=T Bead:=T pbc="F F F"
C      -44.65750000     -33.12080000     -74.19600000
C      -43.60930000     -34.03000000     -73.91760000
C      -42.48570000     -33.59040000     -73.24290000
C      -42.27970000     -32.22950000     -72.91430000
C      -43.31480000     -31.38300000     -73.19970000
C      -44.51710000     -31.80680000     -73.82120000
H      -45.51470000     -33.41660000     -74.79390000
H      -41.78850000     -34.37000000     -72.92340000
H      -43.21190000     -30.34980000     -72.94940000
H      -45.33190000     -31.09280000     -73.92260000
C      -41.21290000     -31.75670000     -71.93940000
H      -40.99140000     -30.69900000     -71.95950000
H      -40.25100000     -32.23840000     -72.09850000
C      -43.76660000     -35.53330000     -74.23880000
H      -44.50530000     -35.60700000     -75.06630000
H      -42.83460000     -36.09480000     -74.43700000
S      -41.69170000     -32.47480000     -70.33820000
S      -44.53160000     -36.43810000     -72.83430000
C      -43.48540000     -31.92710000     -70.16480000
H      -43.63330000     -31.57950000     -69.14630000
H      -43.68960000     -30.99290000     -70.77920000
C      -46.02300000     -35.46600000     -72.20630000
H      -46.94440000     -35.62330000     -72.79620000
H      -45.97170000     -34.40200000     -72.28110000
C      -46.33660000     -35.92860000     -70.67780000
H      -46.78640000     -36.90220000     -70.66080000
H      -45.31030000     -35.98970000     -70.14240000
C      -44.53390000     -33.02440000     -70.45500000
H      -44.29960000     -33.96090000     -69.91110000
H      -44.58670000     -33.26190000     -71.51560000
C      -45.92860000     -32.54210000     -70.08240000
C      -46.30170000     -31.25440000     -69.95600000
C      -47.08530000     -33.45080000     -69.91770000
H      -45.74010000     -30.31220000     -70.18330000
C      -48.28010000     -32.78820000     -69.68220000
C      -47.29120000     -34.88980000     -70.11240000
C      -48.62170000     -35.20940000     -69.84350000
S      -48.03160000     -31.04520000     -69.47540000
S      -49.61600000     -33.85250000     -69.47750000
H      -49.16470000     -36.13160000     -69.86230000
