40
Properties=species:S:1:pos:R:3 #=T CELL(abcABC):=T 1.889726e+02=T 90.00000=T Traj:=T positionsangstrom=T Step:=T 0=T Bead:=T pbc="F F F"
C      -41.78920000     -33.18590000     -70.64890000
C      -41.97150000     -33.61550000     -71.97020000
C      -42.60260000     -34.86740000     -72.17410000
C      -42.92260000     -35.67360000     -71.12170000
C      -42.52740000     -35.34090000     -69.80610000
C      -42.05130000     -34.04120000     -69.59930000
H      -41.45870000     -32.17180000     -70.49410000
H      -43.05660000     -35.11190000     -73.18180000
H      -42.79960000     -35.99490000     -68.94200000
H      -41.94500000     -33.68450000     -68.58200000
C      -43.83280000     -36.83160000     -71.33710000
H      -43.24120000     -37.75960000     -71.14700000
H      -44.20230000     -36.86810000     -72.34470000
C      -41.63380000     -32.78640000     -73.14880000
H      -41.34350000     -31.76500000     -72.98750000
H      -40.81820000     -33.29160000     -73.67420000
S      -45.20820000     -37.06440000     -70.06940000
S      -43.01900000     -32.67580000     -74.46830000
C      -46.32760000     -35.63410000     -70.36440000
H      -46.25910000     -35.48880000     -71.45750000
H      -47.27290000     -36.00530000     -70.16830000
C      -44.40880000     -31.82110000     -73.59840000
H      -45.13710000     -31.47960000     -74.39010000
H      -43.95630000     -30.99960000     -73.10210000
C      -45.11100000     -32.61510000     -72.44310000
H      -45.42950000     -33.52840000     -72.78670000
H      -44.34150000     -32.80590000     -71.65060000
C      -45.84570000     -34.31900000     -69.67380000
H      -44.94330000     -33.99330000     -70.23870000
H      -45.47950000     -34.53070000     -68.67670000
C      -46.90260000     -33.29120000     -69.82490000
C      -48.00970000     -33.34030000     -69.05000000
C      -47.07150000     -32.23540000     -70.84920000
H      -48.22300000     -34.15000000     -68.31580000
C      -48.28150000     -31.52450000     -70.72220000
C      -46.33320000     -31.86620000     -72.00180000
C      -46.97160000     -30.87090000     -72.73890000
S      -49.21680000     -32.10150000     -69.44730000
S      -48.47460000     -30.27280000     -71.99660000
H      -46.71080000     -30.52980000     -73.75340000
