40
Properties=species:S:1:pos:R:3 #=T CELL(abcABC):=T 1.889726e+02=T 90.00000=T Traj:=T positionsangstrom=T Step:=T 0=T Bead:=T pbc="F F F"
C      -42.40960000     -32.90270000     -73.63120000
C      -43.18340000     -32.19590000     -72.73000000
C      -42.93490000     -32.32890000     -71.35480000
C      -41.99140000     -33.31740000     -70.88230000
C      -41.21880000     -34.02170000     -71.82330000
C      -41.46360000     -33.84570000     -73.20360000
H      -42.48600000     -32.78530000     -74.73050000
H      -43.62170000     -31.89450000     -70.65840000
H      -40.47170000     -34.70450000     -71.45150000
H      -41.06620000     -34.49930000     -73.84150000
C      -41.80670000     -33.55110000     -69.39090000
H      -42.27840000     -32.92210000     -68.78840000
H      -40.82050000     -33.71710000     -68.98460000
C      -44.16900000     -31.09640000     -73.17210000
H      -44.77630000     -30.79650000     -72.30200000
H      -43.74310000     -30.15890000     -73.65830000
S      -42.50760000     -35.32100000     -69.09230000
S      -45.30220000     -31.60910000     -74.51360000
C      -44.23000000     -34.84900000     -68.66290000
H      -44.58310000     -35.59370000     -67.97150000
H      -44.26930000     -33.89510000     -68.11000000
C      -45.73270000     -33.44440000     -74.37700000
H      -44.98350000     -34.02500000     -74.85100000
H      -46.63860000     -33.49710000     -74.86980000
C      -45.83000000     -34.00150000     -72.98980000
H      -45.88170000     -35.12330000     -72.86900000
H      -44.93300000     -33.75600000     -72.53590000
C      -45.16990000     -34.97000000     -69.94220000
H      -45.15640000     -36.03850000     -70.23510000
H      -44.72480000     -34.45300000     -70.83580000
C      -46.55650000     -34.42990000     -69.78580000
C      -47.25120000     -34.50270000     -68.59250000
C      -47.22880000     -33.70630000     -70.79160000
H      -46.97700000     -35.09420000     -67.76080000
C      -48.45510000     -33.20620000     -70.34530000
C      -47.03530000     -33.40530000     -72.20390000
C      -48.06620000     -32.68580000     -72.77450000
S      -48.81290000     -33.67760000     -68.70380000
S      -49.27010000     -32.17730000     -71.50680000
H      -48.37270000     -32.55060000     -73.81810000
