40
Properties=species:S:1:pos:R:3 #=T CELL(abcABC):=T 1.889726e+02=T 90.00000=T Traj:=T positionsangstrom=T Step:=T 0=T Bead:=T pbc="F F F"
C      -44.24890000     -34.22870000     -75.14760000
C      -43.83910000     -34.91740000     -74.00770000
C      -42.93060000     -34.25080000     -73.16540000
C      -42.63720000     -32.87450000     -73.18070000
C      -43.18510000     -32.20770000     -74.30350000
C      -43.89370000     -32.90060000     -75.28640000
H      -44.94780000     -34.77410000     -75.77160000
H      -42.70080000     -34.84730000     -72.26630000
H      -43.00800000     -31.17330000     -74.36350000
H      -44.22540000     -32.29730000     -76.11510000
C      -41.60450000     -32.31810000     -72.26710000
H      -41.73550000     -31.21010000     -72.21080000
H      -40.58660000     -32.55240000     -72.65550000
C      -44.19410000     -36.33710000     -73.81860000
H      -44.98560000     -36.65210000     -74.56630000
H      -43.32830000     -37.06140000     -73.93770000
S      -41.60360000     -32.98760000     -70.55790000
S      -44.79330000     -36.60170000     -72.12770000
C      -43.21430000     -32.14830000     -69.89880000
H      -43.00600000     -32.38070000     -68.83920000
H      -43.17420000     -31.10870000     -70.04850000
C      -46.17900000     -35.36010000     -71.96170000
H      -47.03100000     -35.54600000     -72.58250000
H      -45.74560000     -34.39630000     -72.29660000
C      -46.61690000     -35.32670000     -70.50900000
H      -46.99780000     -36.30660000     -70.30210000
H      -45.70170000     -35.34070000     -69.94880000
C      -44.51630000     -32.78190000     -70.31060000
H      -44.52860000     -33.79450000     -69.92080000
H      -44.43670000     -32.87210000     -71.43300000
C      -45.82160000     -32.16050000     -69.88310000
C      -45.99700000     -30.80440000     -69.56230000
C      -47.05200000     -32.81410000     -69.92940000
H      -45.29340000     -30.00690000     -69.63760000
C      -48.11160000     -32.02390000     -69.52380000
C      -47.49360000     -34.16070000     -70.18300000
C      -48.83340000     -34.33480000     -69.94100000
S      -47.61990000     -30.47980000     -68.99590000
S      -49.60510000     -32.84360000     -69.52570000
H      -49.43960000     -35.21240000     -70.19650000
