40
Properties=species:S:1:pos:R:3 #=T CELL(abcABC):=T 1.889726e+02=T 90.00000=T Traj:=T positionsangstrom=T Step:=T 0=T Bead:=T pbc="F F F"
C      -44.18650000     -34.53570000     -74.90890000
C      -43.82070000     -35.20290000     -73.76380000
C      -42.86460000     -34.70190000     -72.86510000
C      -42.28690000     -33.48570000     -73.20360000
C      -42.60220000     -32.84340000     -74.43370000
C      -43.50760000     -33.38370000     -75.25090000
H      -44.98520000     -34.88050000     -75.53070000
H      -42.68080000     -35.21390000     -71.90250000
H      -42.12350000     -31.90730000     -74.68720000
H      -43.74110000     -32.93590000     -76.21870000
C      -41.22030000     -32.82900000     -72.38130000
H      -40.85860000     -31.90670000     -72.79540000
H      -40.34780000     -33.47820000     -72.44130000
C      -44.46200000     -36.57610000     -73.54270000
H      -45.26230000     -36.75100000     -74.40210000
H      -43.70710000     -37.38490000     -73.71000000
S      -41.69890000     -32.65950000     -70.58200000
S      -45.19730000     -36.88400000     -71.84320000
C      -43.31330000     -31.78900000     -70.70540000
H      -43.36220000     -31.04880000     -69.93090000
H      -43.40120000     -31.23280000     -71.66270000
C      -46.30920000     -35.45470000     -71.84170000
H      -47.24360000     -35.60320000     -72.46780000
H      -45.72320000     -34.59360000     -72.18890000
C      -46.78080000     -35.22850000     -70.38490000
H      -47.38270000     -36.05790000     -70.05210000
H      -45.96830000     -35.10710000     -69.77910000
C      -44.51390000     -32.67920000     -70.29870000
H      -44.15190000     -33.24280000     -69.35900000
H      -44.71090000     -33.38140000     -71.13300000
C      -45.77640000     -31.99040000     -69.96320000
C      -45.88320000     -30.62640000     -69.67630000
C      -47.04480000     -32.63170000     -69.86140000
H      -45.08680000     -29.85940000     -69.87350000
C      -48.12270000     -31.77050000     -69.52360000
C      -47.55070000     -33.98790000     -70.10330000
C      -48.87580000     -34.05150000     -69.97920000
S      -47.52110000     -30.09710000     -69.30590000
S      -49.69210000     -32.52810000     -69.51640000
H      -49.49720000     -34.95080000     -69.96320000
