40
Properties=species:S:1:pos:R:3 #=T CELL(abcABC):=T 1.889726e+02=T 90.00000=T Traj:=T positionsangstrom=T Step:=T 0=T Bead:=T pbc="F F F"
C      -44.25750000     -34.48120000     -74.70530000
C      -43.92060000     -35.27240000     -73.58330000
C      -42.89120000     -34.80260000     -72.73270000
C      -42.17990000     -33.66200000     -73.07190000
C      -42.59430000     -32.78190000     -74.09340000
C      -43.62900000     -33.21570000     -74.94900000
H      -44.98390000     -34.80810000     -75.45840000
H      -42.58460000     -35.41470000     -71.87140000
H      -41.97980000     -32.02260000     -74.36440000
H      -43.82860000     -32.62000000     -75.85120000
C      -41.11160000     -33.19040000     -72.11360000
H      -40.60820000     -32.26430000     -72.49420000
H      -40.33640000     -33.90870000     -72.01810000
C      -44.53550000     -36.68810000     -73.25060000
H      -45.44920000     -36.83990000     -73.85630000
H      -43.88270000     -37.48240000     -73.45390000
S      -41.74810000     -32.91010000     -70.41260000
S      -45.01230000     -36.87200000     -71.54040000
C      -43.28570000     -31.80790000     -70.49530000
H      -43.22470000     -31.12290000     -69.68840000
H      -43.36810000     -31.22830000     -71.36080000
C      -46.32120000     -35.50120000     -71.48220000
H      -47.13290000     -35.78840000     -72.10660000
H      -45.95130000     -34.58010000     -71.98930000
C      -46.71110000     -35.17090000     -70.03530000
H      -47.42040000     -35.93060000     -69.70070000
H      -45.85220000     -35.18960000     -69.42930000
C      -44.43810000     -32.69150000     -70.31330000
H      -44.26290000     -33.33590000     -69.53720000
H      -44.52990000     -33.32420000     -71.23950000
C      -45.75990000     -31.91700000     -70.14330000
C      -45.90150000     -30.53520000     -70.17600000
C      -47.08680000     -32.54720000     -70.06340000
H      -45.06280000     -29.84810000     -70.33860000
C      -48.12070000     -31.64560000     -70.01720000
C      -47.54670000     -33.92440000     -69.97360000
C      -48.91490000     -33.96620000     -69.96240000
S      -47.66420000     -29.97990000     -70.08210000
S      -49.66260000     -32.36130000     -69.89360000
H      -49.47120000     -34.87530000     -69.85230000
