40
Properties=species:S:1:pos:R:3 #=T CELL(abcABC):=T 1.889726e+02=T 90.00000=T Traj:=T positionsangstrom=T Step:=T 0=T Bead:=T pbc="F F F"
C      -44.35530000     -34.56320000     -74.51770000
C      -43.94540000     -35.27620000     -73.41050000
C      -42.95040000     -34.76810000     -72.57610000
C      -42.32310000     -33.54760000     -72.85740000
C      -42.66520000     -32.82320000     -74.03460000
C      -43.64260000     -33.36930000     -74.85050000
H      -45.19640000     -34.83500000     -75.11820000
H      -42.62880000     -35.44530000     -71.70610000
H      -42.34590000     -31.80500000     -74.20320000
H      -43.98260000     -32.87990000     -75.77930000
C      -41.18240000     -32.96040000     -72.03520000
H      -40.97410000     -31.91940000     -72.32450000
H      -40.32800000     -33.60460000     -72.10280000
C      -44.47790000     -36.68410000     -73.31370000
H      -45.23840000     -36.92260000     -74.12270000
H      -43.64020000     -37.37590000     -73.24780000
S      -41.63880000     -32.86240000     -70.16850000
S      -45.15940000     -37.00190000     -71.52110000
C      -43.12730000     -31.86100000     -70.29620000
H      -43.04820000     -31.11140000     -69.47800000
H      -43.05740000     -31.31150000     -71.30740000
C      -46.33290000     -35.57810000     -71.48200000
H      -47.28660000     -35.86150000     -72.02080000
H      -45.90150000     -34.77810000     -72.11380000
C      -46.64700000     -35.06610000     -70.05120000
H      -47.12460000     -35.87130000     -69.42260000
H      -45.68530000     -34.99100000     -69.48920000
C      -44.36230000     -32.69400000     -70.25020000
H      -44.41960000     -33.20420000     -69.25310000
H      -44.20690000     -33.47270000     -71.00430000
C      -45.77190000     -31.98030000     -70.34820000
C      -45.88890000     -30.60830000     -70.53570000
C      -47.08920000     -32.51670000     -70.27350000
H      -45.06300000     -29.85680000     -70.79280000
C      -48.18150000     -31.61990000     -70.31310000
C      -47.52980000     -33.81730000     -70.00320000
C      -48.88100000     -33.91490000     -69.82110000
S      -47.50250000     -29.95610000     -70.43950000
S      -49.74060000     -32.37860000     -69.92000000
H      -49.50060000     -34.74570000     -69.57610000
