40
Properties=species:S:1:pos:R:3 #=T CELL(abcABC):=T 1.889726e+02=T 90.00000=T Traj:=T positionsangstrom=T Step:=T 0=T Bead:=T pbc="F F F"
C      -41.52980000     -32.70250000     -71.89720000
C      -42.15350000     -33.55610000     -72.82540000
C      -42.67820000     -34.73790000     -72.32660000
C      -42.48720000     -35.15720000     -71.00960000
C      -41.76320000     -34.32830000     -70.12360000
C      -41.33350000     -33.06460000     -70.54780000
H      -41.11150000     -31.78730000     -72.27820000
H      -43.38180000     -35.45180000     -72.92850000
H      -41.42610000     -34.65220000     -69.20580000
H      -40.90390000     -32.39910000     -69.81670000
C      -43.28030000     -36.41550000     -70.60060000
H      -42.45670000     -37.14340000     -70.26250000
H      -43.86790000     -36.93430000     -71.39930000
C      -42.35820000     -33.12710000     -74.25250000
H      -42.30620000     -32.01040000     -74.35620000
H      -41.60970000     -33.70900000     -74.89150000
S      -44.23620000     -36.26810000     -69.06980000
S      -44.06700000     -33.46020000     -75.01260000
C      -45.69950000     -35.28340000     -69.48200000
H      -46.07810000     -35.42970000     -70.51270000
H      -46.47220000     -35.65550000     -68.82250000
C      -45.23450000     -32.46910000     -74.07530000
H      -46.04160000     -32.39810000     -74.87560000
H      -44.96350000     -31.42280000     -73.82790000
C      -45.79150000     -33.20770000     -72.81720000
H      -46.24300000     -34.24140000     -73.06270000
H      -45.01460000     -33.45870000     -72.11580000
C      -45.37080000     -33.79970000     -69.41600000
H      -44.54090000     -33.47140000     -70.09360000
H      -44.96740000     -33.56450000     -68.47670000
C      -46.57530000     -32.99170000     -69.61350000
C      -47.37180000     -32.84140000     -68.54740000
C      -47.07340000     -32.43140000     -70.78030000
H      -47.11480000     -32.99600000     -67.52580000
C      -48.26460000     -31.71600000     -70.47210000
C      -46.84690000     -32.41740000     -72.22340000
C      -47.88190000     -31.88670000     -72.95410000
S      -48.80280000     -31.89170000     -68.86130000
S      -49.15220000     -31.18800000     -71.87410000
H      -48.03950000     -31.94830000     -74.00470000
