40
Properties=species:S:1:pos:R:3 #=T CELL(abcABC):=T 1.889726e+02=T 90.00000=T Traj:=T positionsangstrom=T Step:=T 0=T Bead:=T pbc="F F F"
C      -43.64030000     -35.32780000     -73.94410000
C      -43.45800000     -35.92080000     -72.66940000
C      -42.68680000     -35.26040000     -71.73290000
C      -42.09570000     -33.97030000     -71.95830000
C      -42.25070000     -33.39420000     -73.24050000
C      -42.99120000     -34.12650000     -74.21340000
H      -44.34720000     -35.76310000     -74.61450000
H      -42.72470000     -35.61970000     -70.72940000
H      -41.88450000     -32.41060000     -73.52720000
H      -43.32460000     -33.65740000     -75.17130000
C      -41.37400000     -33.25470000     -70.88410000
H      -40.93340000     -32.26960000     -71.09280000
H      -40.51610000     -33.87370000     -70.65180000
C      -44.18840000     -37.19270000     -72.18700000
H      -44.86140000     -37.60820000     -72.85140000
H      -43.45800000     -37.91810000     -71.85290000
S      -42.22520000     -32.97970000     -69.24940000
S      -45.18990000     -36.75640000     -70.65730000
C      -43.55360000     -31.87310000     -69.76600000
H      -43.45750000     -30.88060000     -69.17810000
H      -43.37350000     -31.54530000     -70.76190000
C      -46.13830000     -35.34080000     -71.29940000
H      -46.63830000     -35.55990000     -72.25770000
H      -45.43990000     -34.48490000     -71.55040000
C      -47.22160000     -34.83870000     -70.30380000
H      -47.95450000     -35.53160000     -70.17340000
H      -46.70810000     -34.59120000     -69.34050000
C      -44.93420000     -32.40410000     -69.64140000
H      -45.18070000     -32.58440000     -68.54990000
H      -45.00860000     -33.38610000     -70.04900000
C      -46.02550000     -31.68010000     -70.33580000
C      -45.90890000     -30.36310000     -70.74650000
C      -47.31870000     -32.16470000     -70.72790000
H      -45.08330000     -29.73210000     -70.71310000
C      -48.07830000     -31.27740000     -71.37840000
C      -47.89110000     -33.52530000     -70.77560000
C      -49.15110000     -33.50730000     -71.37800000
S      -47.27800000     -29.76350000     -71.66340000
S      -49.48480000     -31.97560000     -72.16370000
H      -49.72020000     -34.47690000     -71.53860000
