40
Properties=species:S:1:pos:R:3 #=T CELL(abcABC):=T 1.889726e+02=T 90.00000=T Traj:=T positionsangstrom=T Step:=T 0=T Bead:=T pbc="F F F"
C      -43.80760000     -35.11900000     -73.82470000
C      -43.59440000     -35.70020000     -72.58620000
C      -42.67720000     -35.09690000     -71.73740000
C      -42.07940000     -33.85600000     -72.06490000
C      -42.39380000     -33.20400000     -73.31320000
C      -43.18880000     -33.89910000     -74.18980000
H      -44.31290000     -35.66340000     -74.59160000
H      -42.48130000     -35.59080000     -70.88290000
H      -41.89520000     -32.26570000     -73.49020000
H      -43.39960000     -33.52920000     -75.22310000
C      -41.16540000     -33.24510000     -71.03360000
H      -40.88670000     -32.19990000     -71.21750000
H      -40.24530000     -33.85270000     -70.92520000
C      -44.29780000     -37.03550000     -72.26970000
H      -44.95620000     -37.31700000     -73.13910000
H      -43.60440000     -37.85410000     -72.17380000
S      -42.07720000     -33.12920000     -69.43080000
S      -45.38110000     -36.95060000     -70.75460000
C      -43.41020000     -31.87070000     -69.94120000
H      -43.20100000     -31.00190000     -69.40850000
H      -43.33760000     -31.82160000     -71.03290000
C      -46.24730000     -35.38000000     -71.27140000
H      -46.83000000     -35.62340000     -72.11510000
H      -45.50860000     -34.65310000     -71.58460000
C      -47.18830000     -34.81530000     -70.20820000
H      -47.90190000     -35.51820000     -69.89770000
H      -46.67210000     -34.54740000     -69.21030000
C      -44.82940000     -32.33510000     -69.54130000
H      -44.98790000     -32.05350000     -68.48320000
H      -44.87400000     -33.41680000     -69.67540000
C      -45.89260000     -31.70870000     -70.32800000
C      -45.88310000     -30.30610000     -70.52870000
C      -47.11810000     -32.28900000     -70.86560000
H      -45.11000000     -29.64970000     -70.25320000
C      -47.95230000     -31.37750000     -71.57220000
C      -47.80050000     -33.59160000     -70.87730000
C      -49.09150000     -33.59020000     -71.41700000
S      -47.29470000     -29.77420000     -71.41770000
S      -49.55580000     -32.02370000     -71.97840000
H      -49.68160000     -34.46840000     -71.52030000
