40
Properties=species:S:1:pos:R:3 #=T CELL(abcABC):=T 1.889726e+02=T 90.00000=T Traj:=T positionsangstrom=T Step:=T 0=T Bead:=T pbc="F F F"
C      -44.33490000     -34.86010000     -73.84700000
C      -43.76900000     -35.67670000     -72.89060000
C      -42.74920000     -35.11590000     -72.06520000
C      -42.23620000     -33.83750000     -72.19360000
C      -42.77830000     -33.08870000     -73.28040000
C      -43.84030000     -33.50530000     -74.04750000
H      -45.12960000     -35.21550000     -74.41200000
H      -42.41930000     -35.66750000     -71.18070000
H      -42.30980000     -32.18820000     -73.45400000
H      -44.29860000     -32.81680000     -74.75750000
C      -41.04430000     -33.34310000     -71.42300000
H      -40.52270000     -32.61600000     -72.00760000
H      -40.41160000     -34.14130000     -71.09970000
C      -44.25080000     -37.11980000     -72.70960000
H      -44.90480000     -37.38130000     -73.57030000
H      -43.41050000     -37.80970000     -72.51510000
S      -41.61500000     -32.69970000     -69.75150000
S      -45.23530000     -37.09590000     -71.16640000
C      -43.23900000     -31.75810000     -70.08590000
H      -43.34770000     -31.07390000     -69.22710000
H      -43.08110000     -31.11490000     -70.98250000
C      -46.37810000     -35.70400000     -71.47490000
H      -47.13190000     -36.07530000     -72.23910000
H      -45.90920000     -34.88090000     -72.00650000
C      -46.99240000     -35.06000000     -70.23150000
H      -47.78310000     -35.75910000     -69.81090000
H      -46.16960000     -34.90010000     -69.49980000
C      -44.58680000     -32.59940000     -70.14790000
H      -44.82140000     -32.98210000     -69.12940000
H      -44.39730000     -33.40670000     -70.77370000
C      -45.80190000     -31.73800000     -70.49470000
C      -45.82030000     -30.37610000     -70.56870000
C      -47.11510000     -32.35940000     -70.63840000
H      -44.98650000     -29.66850000     -70.38390000
C      -48.02330000     -31.38550000     -70.96930000
C      -47.69400000     -33.71590000     -70.54760000
C      -49.00420000     -33.69610000     -70.76310000
S      -47.40910000     -29.74570000     -71.01240000
S      -49.63130000     -32.10440000     -71.25670000
H      -49.75830000     -34.51980000     -70.68990000
