40
Properties=species:S:1:pos:R:3 #=T CELL(abcABC):=T 1.889726e+02=T 90.00000=T Traj:=T positionsangstrom=T Step:=T 0=T Bead:=T pbc="F F F"
C      -41.65330000     -32.50180000     -71.60450000
C      -42.34550000     -33.22080000     -72.62950000
C      -42.76650000     -34.50450000     -72.37200000
C      -42.62130000     -35.09210000     -71.10420000
C      -41.86970000     -34.48700000     -70.07560000
C      -41.33430000     -33.20070000     -70.40470000
H      -41.31760000     -31.47400000     -71.76900000
H      -43.34130000     -35.09800000     -73.09500000
H      -41.66150000     -34.91650000     -69.15850000
H      -40.61190000     -32.67860000     -69.67450000
C      -43.29740000     -36.46660000     -70.75750000
H      -42.48920000     -37.17210000     -70.70080000
H      -44.02090000     -36.90410000     -71.46620000
C      -42.47810000     -32.54410000     -74.00160000
H      -42.66380000     -31.49840000     -73.87210000
H      -41.55220000     -32.70440000     -74.50650000
S      -44.04480000     -36.44220000     -69.04550000
S      -43.81350000     -33.25260000     -75.04930000
C      -45.64550000     -35.47640000     -69.15280000
H      -46.22970000     -35.93800000     -69.88960000
H      -46.19120000     -35.43620000     -68.25470000
C      -45.38160000     -32.61080000     -74.37610000
H      -46.15790000     -33.22190000     -74.91060000
H      -45.50800000     -31.59080000     -74.76230000
C      -45.47840000     -32.61050000     -72.85940000
H      -45.30750000     -33.67260000     -72.47570000
H      -44.61800000     -32.03530000     -72.50540000
C      -45.37270000     -34.06190000     -69.58550000
H      -44.84450000     -34.10020000     -70.53120000
H      -44.66630000     -33.53260000     -68.88870000
C      -46.63560000     -33.28000000     -69.66790000
C      -47.46100000     -33.09310000     -68.57920000
C      -47.16400000     -32.64220000     -70.88560000
H      -47.37540000     -33.43300000     -67.59220000
C      -48.41960000     -32.07700000     -70.59880000
C      -46.76300000     -32.27160000     -72.23480000
C      -47.75320000     -31.56930000     -72.89890000
S      -48.95340000     -32.18000000     -68.95860000
S      -49.17900000     -31.16190000     -71.84870000
H      -47.59550000     -31.03610000     -73.82640000
