40
Properties=species:S:1:pos:R:3 #=T CELL(abcABC):=T 1.889726e+02=T 90.00000=T Traj:=T positionsangstrom=T Step:=T 0=T Bead:=T pbc="F F F"
C      -43.40490000     -35.41260000     -73.55250000
C      -43.42530000     -35.76150000     -72.12100000
C      -42.72590000     -35.08440000     -71.12540000
C      -41.89450000     -34.02440000     -71.59870000
C      -41.92900000     -33.63700000     -72.98400000
C      -42.58350000     -34.38230000     -73.98770000
H      -43.96290000     -36.01650000     -74.19450000
H      -42.93310000     -35.35060000     -70.04320000
H      -41.32500000     -32.81470000     -73.26590000
H      -42.57850000     -33.98280000     -74.95610000
C      -41.08190000     -33.24760000     -70.54330000
H      -40.56870000     -32.38690000     -71.04520000
H      -40.29850000     -33.76590000     -69.99730000
C      -44.14980000     -37.04540000     -71.79700000
H      -44.45330000     -37.54790000     -72.73490000
H      -43.40290000     -37.74840000     -71.28190000
S      -42.17510000     -32.60900000     -69.16230000
S      -45.58320000     -37.00080000     -70.61030000
C      -43.48820000     -31.83210000     -70.10310000
H      -43.82580000     -30.88960000     -69.67990000
H      -43.23150000     -31.38000000     -71.13890000
C      -46.42740000     -35.53120000     -71.40260000
H      -46.97880000     -35.83280000     -72.27230000
H      -45.69310000     -34.84420000     -71.76780000
C      -47.28460000     -34.73190000     -70.44080000
H      -48.05730000     -35.35340000     -69.98860000
H      -46.58110000     -34.33110000     -69.71290000
C      -44.77940000     -32.70830000     -70.40910000
H      -45.11670000     -33.20640000     -69.50880000
H      -44.41590000     -33.47970000     -71.10950000
C      -45.89890000     -31.84050000     -70.97570000
C      -45.71800000     -30.59050000     -71.47660000
C      -47.28100000     -32.28960000     -71.14690000
H      -44.78000000     -30.03750000     -71.44150000
C      -48.10010000     -31.19400000     -71.58850000
C      -48.00170000     -33.54120000     -71.05210000
C      -49.32680000     -33.45920000     -71.41440000
S      -47.26400000     -29.73510000     -71.83100000
S      -49.75410000     -31.75570000     -71.90060000
H      -50.11690000     -34.21970000     -71.36870000
