40
Properties=species:S:1:pos:R:3 #=T CELL(abcABC):=T 1.889726e+02=T 90.00000=T Traj:=T positionsangstrom=T Step:=T 0=T Bead:=T pbc="F F F"
C      -41.63470000     -33.06150000     -72.95060000
C      -42.49840000     -34.11280000     -73.34400000
C      -43.00680000     -35.05440000     -72.40870000
C      -42.49800000     -34.93460000     -71.07720000
C      -41.65540000     -33.87560000     -70.70350000
C      -41.23770000     -32.94260000     -71.61110000
H      -41.18670000     -32.49290000     -73.81630000
H      -43.73180000     -35.75280000     -72.86110000
H      -41.39490000     -33.82920000     -69.71100000
H      -40.68170000     -32.07220000     -71.27150000
C      -42.88870000     -36.03660000     -70.10220000
H      -41.96270000     -36.61190000     -69.74900000
H      -43.50770000     -36.70600000     -70.71010000
C      -42.81390000     -34.20160000     -74.77820000
H      -42.48950000     -33.32200000     -75.24950000
H      -42.47400000     -35.12900000     -75.23080000
S      -43.75560000     -35.50580000     -68.55920000
S      -44.63040000     -34.37310000     -75.00240000
C      -45.10680000     -34.52660000     -69.41120000
H      -45.01880000     -34.91250000     -70.46380000
H      -45.99000000     -35.01980000     -69.09310000
C      -45.44760000     -33.08560000     -74.00040000
H      -46.14060000     -32.49820000     -74.55370000
H      -44.71520000     -32.34300000     -73.68260000
C      -45.91920000     -33.57110000     -72.58890000
H      -46.29330000     -34.64020000     -72.65910000
H      -45.04560000     -33.55970000     -71.98690000
C      -44.96280000     -32.96350000     -69.43890000
H      -44.30400000     -32.72050000     -70.28080000
H      -44.47930000     -32.63040000     -68.46140000
C      -46.26860000     -32.32980000     -69.46060000
C      -46.90150000     -31.77260000     -68.42800000
C      -47.10840000     -32.25820000     -70.61920000
H      -46.37300000     -31.81150000     -67.44140000
C      -48.37100000     -31.67020000     -70.38620000
C      -47.04050000     -32.83780000     -71.96120000
C      -48.21560000     -32.68120000     -72.65950000
S      -48.55130000     -31.14930000     -68.70900000
S      -49.43930000     -31.84960000     -71.73460000
H      -48.39880000     -32.99450000     -73.67560000
