40
Properties=species:S:1:pos:R:3 #=T CELL(abcABC):=T 1.889726e+02=T 90.00000=T Traj:=T positionsangstrom=T Step:=T 0=T Bead:=T pbc="F F F"
C      -43.19540000     -36.28040000     -73.22110000
C      -43.51410000     -36.31680000     -71.86550000
C      -42.86370000     -35.47580000     -70.99380000
C      -42.03130000     -34.44680000     -71.44890000
C      -41.83170000     -34.23220000     -72.83810000
C      -42.45620000     -35.16420000     -73.70420000
H      -43.76160000     -36.89010000     -73.89610000
H      -43.10380000     -35.70790000     -69.93740000
H      -41.29540000     -33.32960000     -73.11360000
H      -42.32970000     -35.04950000     -74.77680000
C      -41.36500000     -33.58630000     -70.45960000
H      -40.53410000     -32.99280000     -71.00270000
H      -40.75650000     -34.19880000     -69.81680000
C      -44.46740000     -37.36120000     -71.34410000
H      -45.02410000     -37.78440000     -72.19060000
H      -43.90660000     -38.24110000     -70.89880000
S      -42.32640000     -32.45470000     -69.36140000
S      -45.66760000     -36.69490000     -70.17030000
C      -43.31800000     -31.43870000     -70.61710000
H      -43.49400000     -30.57490000     -70.16450000
H      -42.74010000     -31.39690000     -71.54990000
C      -46.72850000     -35.48900000     -71.07760000
H      -47.60050000     -36.02760000     -71.48330000
H      -46.25670000     -35.18020000     -72.04740000
C      -47.16710000     -34.38570000     -70.12450000
H      -47.83820000     -34.78530000     -69.37210000
H      -46.25200000     -34.04950000     -69.53640000
C      -44.61970000     -32.24960000     -70.74310000
H      -45.11960000     -32.21840000     -69.72490000
H      -44.30480000     -33.30430000     -70.94620000
C      -45.73650000     -31.63510000     -71.55620000
C      -45.65930000     -30.32960000     -72.00700000
C      -47.11480000     -32.07190000     -71.45780000
H      -44.66270000     -30.03250000     -72.22440000
C      -48.03550000     -31.08470000     -71.91920000
C      -47.82890000     -33.19870000     -70.77900000
C      -49.18970000     -33.06380000     -70.95200000
S      -47.22250000     -29.73680000     -72.54870000
S      -49.68570000     -31.58010000     -71.72660000
H      -49.84600000     -33.75390000     -70.47440000
