40
Properties=species:S:1:pos:R:3 #=T CELL(abcABC):=T 1.889726e+02=T 90.00000=T Traj:=T positionsangstrom=T Step:=T 0=T Bead:=T pbc="F F F"
C      -41.58950000     -32.92570000     -72.86390000
C      -42.38310000     -33.97300000     -73.37860000
C      -42.61210000     -35.06370000     -72.42590000
C      -42.33880000     -34.94490000     -71.07510000
C      -41.59990000     -33.85600000     -70.62510000
C      -41.20670000     -32.86780000     -71.51510000
H      -41.24610000     -32.07650000     -73.46350000
H      -43.19630000     -35.92360000     -72.78080000
H      -41.29280000     -33.74510000     -69.54010000
H      -40.49070000     -32.03950000     -71.28700000
C      -42.81450000     -35.94650000     -70.06590000
H      -42.01090000     -36.68850000     -69.82790000
H      -43.75950000     -36.48070000     -70.49630000
C      -42.76570000     -34.10450000     -74.77000000
H      -42.43590000     -33.28060000     -75.41810000
H      -42.33130000     -35.04580000     -75.15130000
S      -43.38140000     -35.24540000     -68.42890000
S      -44.54270000     -34.25860000     -75.17990000
C      -45.13270000     -34.48780000     -68.69610000
H      -45.62920000     -35.19470000     -69.37630000
H      -45.68440000     -34.55980000     -67.72260000
C      -45.43150000     -33.05680000     -74.01710000
H      -46.36860000     -32.86900000     -74.60410000
H      -44.77460000     -32.24960000     -73.93240000
C      -45.77070000     -33.48590000     -72.58540000
H      -45.77630000     -34.57940000     -72.53030000
H      -44.90280000     -33.21370000     -71.97100000
C      -45.15420000     -33.00510000     -69.18320000
H      -44.56810000     -33.03950000     -70.13240000
H      -44.63400000     -32.41090000     -68.42520000
C      -46.49730000     -32.40290000     -69.41840000
C      -47.19890000     -31.83140000     -68.40410000
C      -47.29980000     -32.49260000     -70.65660000
H      -46.70110000     -31.52730000     -67.50320000
C      -48.57050000     -31.88460000     -70.51710000
C      -47.05040000     -32.91560000     -72.05890000
C      -48.20550000     -32.74920000     -72.76380000
S      -48.86700000     -31.31270000     -68.90490000
S      -49.57500000     -32.06500000     -71.92400000
H      -48.17310000     -33.07270000     -73.80940000
