40
Properties=species:S:1:pos:R:3 #=T CELL(abcABC):=T 1.889726e+02=T 90.00000=T Traj:=T positionsangstrom=T Step:=T 0=T Bead:=T pbc="F F F"
C      -43.31450000     -35.62860000     -73.29230000
C      -43.41700000     -36.06840000     -71.95210000
C      -42.65760000     -35.46490000     -70.97840000
C      -41.78770000     -34.40570000     -71.33660000
C      -41.68130000     -33.94460000     -72.62990000
C      -42.49860000     -34.58120000     -73.61100000
H      -43.91450000     -36.12640000     -74.04380000
H      -42.72540000     -35.85980000     -69.96990000
H      -41.01830000     -33.16700000     -72.88970000
H      -42.53560000     -34.08010000     -74.57670000
C      -41.16500000     -33.68230000     -70.21280000
H      -40.51900000     -32.87130000     -70.56430000
H      -40.68390000     -34.37250000     -69.57860000
C      -44.32810000     -37.25320000     -71.63000000
H      -44.50820000     -37.85690000     -72.49270000
H      -43.71510000     -37.93630000     -71.05860000
S      -42.42970000     -32.59400000     -69.36070000
S      -45.83480000     -36.98840000     -70.58530000
C      -43.32190000     -31.68030000     -70.66100000
H      -43.43770000     -30.61960000     -70.32420000
H      -42.67450000     -31.74560000     -71.51850000
C      -46.49930000     -35.45820000     -71.27570000
H      -47.24660000     -35.64820000     -72.00820000
H      -45.68040000     -34.92820000     -71.80410000
C      -47.19180000     -34.54310000     -70.22900000
H      -48.00010000     -35.05360000     -69.84710000
H      -46.50430000     -34.29420000     -69.37460000
C      -44.64300000     -32.33380000     -70.85190000
H      -45.02510000     -32.54260000     -69.86430000
H      -44.51000000     -33.30870000     -71.34040000
C      -45.78460000     -31.59830000     -71.50390000
C      -45.71810000     -30.31250000     -71.95940000
C      -47.13400000     -32.14490000     -71.42930000
H      -44.75620000     -29.74500000     -72.02590000
C      -48.07900000     -31.12850000     -71.73680000
C      -47.76890000     -33.30350000     -70.88560000
C      -49.13500000     -33.19700000     -70.90410000
S      -47.33060000     -29.65040000     -72.26770000
S      -49.72960000     -31.68290000     -71.58150000
H      -49.81630000     -33.96010000     -70.58940000
