40
Properties=species:S:1:pos:R:3 #=T CELL(abcABC):=T 1.889726e+02=T 90.00000=T Traj:=T positionsangstrom=T Step:=T 0=T Bead:=T pbc="F F F"
C      -45.04060000     -34.89910000     -74.50640000
C      -45.78750000     -35.58410000     -73.54050000
C      -45.09730000     -36.27360000     -72.52650000
C      -43.73200000     -36.12090000     -72.38500000
C      -43.01770000     -35.29120000     -73.33170000
C      -43.69670000     -34.71170000     -74.40220000
H      -45.59180000     -34.36940000     -75.24820000
H      -45.65550000     -36.91990000     -71.85650000
H      -41.95200000     -35.20250000     -73.16430000
H      -43.24970000     -34.13090000     -75.18570000
C      -43.00720000     -36.66540000     -71.22460000
H      -42.05320000     -37.06140000     -71.66600000
H      -43.56370000     -37.39670000     -70.59580000
C      -47.29120000     -35.72630000     -73.76780000
H      -47.56700000     -34.95090000     -74.47200000
H      -47.47040000     -36.71200000     -74.18120000
S      -42.19910000     -35.40440000     -70.11880000
S      -48.35930000     -35.58400000     -72.26930000
C      -43.55440000     -34.14070000     -69.91720000
H      -44.45590000     -34.51860000     -69.45070000
H      -43.08970000     -33.39980000     -69.24660000
C      -48.03690000     -33.79360000     -71.83950000
H      -48.93770000     -33.24450000     -71.69420000
H      -47.54680000     -33.40590000     -72.74450000
C      -47.17290000     -33.72730000     -70.59570000
H      -47.63680000     -34.29820000     -69.71120000
H      -46.24120000     -34.24790000     -70.83030000
C      -43.91930000     -33.29140000     -71.24380000
H      -44.67510000     -33.58120000     -71.97680000
H      -42.97080000     -33.20490000     -71.75730000
C      -44.35170000     -31.88530000     -70.88850000
C      -43.53040000     -30.78810000     -70.93250000
C      -45.61030000     -31.58690000     -70.28920000
H      -42.55070000     -30.85170000     -71.35770000
C      -45.67690000     -30.28030000     -69.81590000
C      -46.87250000     -32.34250000     -70.16900000
C      -47.80340000     -31.44950000     -69.71200000
S      -44.29190000     -29.28850000     -70.16360000
S      -47.29740000     -29.79430000     -69.40100000
H      -48.85000000     -31.69720000     -69.58450000
