40
Properties=species:S:1:pos:R:3 #=T CELL(abcABC):=T 1.889726e+02=T 90.00000=T Traj:=T positionsangstrom=T Step:=T 0=T Bead:=T pbc="F F F"
C      -41.99830000     -31.99380000     -72.54520000
C      -42.41180000     -33.20910000     -72.93850000
C      -42.49480000     -34.22590000     -72.04520000
C      -42.21910000     -33.99450000     -70.68180000
C      -41.80190000     -32.67610000     -70.24330000
C      -41.69520000     -31.68680000     -71.22100000
H      -41.79600000     -31.27900000     -73.22350000
H      -42.90830000     -35.22900000     -72.25910000
H      -41.49060000     -32.47610000     -69.27240000
H      -41.23530000     -30.73020000     -70.99480000
C      -42.28200000     -35.15890000     -69.62680000
H      -41.23130000     -35.38570000     -69.23650000
H      -42.73720000     -36.14890000     -70.05300000
C      -42.85470000     -33.54560000     -74.38030000
H      -43.39480000     -32.73700000     -74.82900000
H      -41.95720000     -33.58590000     -75.09320000
S      -43.30900000     -34.71640000     -68.15300000
S      -43.87710000     -35.03240000     -74.60220000
C      -45.01690000     -34.53480000     -68.91210000
H      -45.19060000     -35.36380000     -69.60340000
H      -45.82010000     -34.58060000     -68.15310000
C      -45.57190000     -34.34000000     -74.23400000
H      -46.27440000     -35.17370000     -74.47390000
H      -45.70120000     -33.55330000     -74.99030000
C      -45.75310000     -33.71430000     -72.83860000
H      -45.24670000     -34.30480000     -72.09030000
H      -45.16080000     -32.80540000     -72.84330000
C      -45.15730000     -33.15440000     -69.56450000
H      -44.51510000     -33.03580000     -70.44390000
H      -44.71420000     -32.43250000     -68.85540000
C      -46.65200000     -32.78080000     -69.74210000
C      -47.50580000     -32.37780000     -68.78060000
C      -47.37110000     -32.84920000     -70.99340000
H      -47.29750000     -32.34990000     -67.72460000
C      -48.71810000     -32.45730000     -70.81080000
C      -47.09540000     -33.19230000     -72.32800000
C      -48.12490000     -32.92010000     -73.20680000
S      -49.12840000     -32.03470000     -69.26270000
S      -49.61060000     -32.41010000     -72.37870000
H      -48.19740000     -33.01090000     -74.27970000
