40
Properties=species:S:1:pos:R:3 #=T CELL(abcABC):=T 1.889726e+02=T 90.00000=T Traj:=T positionsangstrom=T Step:=T 0=T Bead:=T pbc="F F F"
C      -43.84760000     -36.37990000     -72.81570000
C      -43.74820000     -36.41910000     -71.38270000
C      -42.96770000     -35.42250000     -70.84510000
C      -42.28600000     -34.45150000     -71.59600000
C      -42.52700000     -34.38100000     -73.01280000
C      -43.30520000     -35.32680000     -73.61580000
H      -44.45170000     -37.09320000     -73.31810000
H      -42.83660000     -35.40550000     -69.79500000
H      -41.95790000     -33.67770000     -73.57960000
H      -43.43120000     -35.35190000     -74.64010000
C      -41.25910000     -33.54020000     -70.91660000
H      -40.65850000     -32.89910000     -71.69980000
H      -40.55860000     -34.21840000     -70.61270000
C      -44.50580000     -37.41970000     -70.52030000
H      -44.93210000     -38.29610000     -71.02970000
H      -43.89160000     -37.76240000     -69.67380000
S      -41.88680000     -32.55620000     -69.48200000
S      -46.00650000     -36.55550000     -69.71630000
C      -43.29630000     -31.67930000     -70.25550000
H      -43.32890000     -30.71910000     -69.75500000
H      -43.01120000     -31.44930000     -71.34010000
C      -46.71080000     -35.46900000     -71.00840000
H      -47.47550000     -35.99200000     -71.58110000
H      -45.91930000     -35.07220000     -71.62480000
C      -47.44690000     -34.34050000     -70.32960000
H      -48.36310000     -34.53940000     -69.78980000
H      -46.68580000     -33.99010000     -69.55310000
C      -44.66980000     -32.35790000     -70.24030000
H      -45.13770000     -32.48980000     -69.29300000
H      -44.57860000     -33.35160000     -70.65330000
C      -45.68960000     -31.51610000     -71.09780000
C      -45.38210000     -30.32210000     -71.77780000
C      -47.01540000     -31.95640000     -71.37030000
H      -44.51040000     -29.74670000     -71.49890000
C      -47.72420000     -30.96310000     -72.03100000
C      -47.83060000     -33.14830000     -71.16270000
C      -49.13360000     -33.04000000     -71.65610000
S      -46.76110000     -29.70540000     -72.74550000
S      -49.32590000     -31.51590000     -72.47900000
H      -49.93770000     -33.86510000     -71.69100000
