40
Properties=species:S:1:pos:R:3 #=T CELL(abcABC):=T 1.889726e+02=T 90.00000=T Traj:=T positionsangstrom=T Step:=T 0=T Bead:=T pbc="F F F"
C      -41.54390000     -32.81550000     -72.93870000
C      -42.10780000     -34.04260000     -73.22540000
C      -42.62110000     -34.81440000     -72.13890000
C      -42.31450000     -34.46170000     -70.74070000
C      -41.63520000     -33.20240000     -70.48980000
C      -41.26840000     -32.41690000     -71.60720000
H      -41.14950000     -32.13970000     -73.60470000
H      -43.09890000     -35.82510000     -72.24590000
H      -41.53920000     -32.88820000     -69.50430000
H      -40.86160000     -31.43460000     -71.39190000
C      -42.64410000     -35.42060000     -69.68710000
H      -41.75280000     -35.97150000     -69.29600000
H      -43.40730000     -36.17940000     -70.03060000
C      -42.44610000     -34.50780000     -74.63480000
H      -41.96820000     -33.90730000     -75.40340000
H      -42.28980000     -35.57040000     -74.77260000
S      -43.24810000     -34.66900000     -68.11920000
S      -44.35950000     -34.53860000     -74.93790000
C      -45.01070000     -34.24430000     -68.64520000
H      -45.42710000     -35.04580000     -69.26280000
H      -45.65980000     -34.15380000     -67.78390000
C      -45.18850000     -33.12300000     -74.06280000
H      -45.85610000     -32.57050000     -74.79510000
H      -44.31130000     -32.45530000     -73.91830000
C      -45.81090000     -33.65310000     -72.77310000
H      -46.01710000     -34.74560000     -72.89690000
H      -45.07390000     -33.72450000     -71.99330000
C      -45.24370000     -32.83900000     -69.29610000
H      -44.79330000     -32.78840000     -70.27760000
H      -44.82420000     -31.98270000     -68.75740000
C      -46.69960000     -32.60020000     -69.57740000
C      -47.54650000     -32.23570000     -68.55470000
C      -47.39790000     -32.63690000     -70.87210000
H      -47.32320000     -31.86260000     -67.52600000
C      -48.73950000     -32.20960000     -70.71660000
C      -47.10040000     -32.96620000     -72.25350000
C      -48.11930000     -32.73820000     -73.08350000
S      -49.22620000     -31.92900000     -69.06570000
S      -49.61300000     -32.19990000     -72.22340000
H      -48.24120000     -32.98110000     -74.11820000
