40
Properties=species:S:1:pos:R:3 #=T CELL(abcABC):=T 1.889726e+02=T 90.00000=T Traj:=T positionsangstrom=T Step:=T 0=T Bead:=T pbc="F F F"
C      -49.11650000     -33.18430000     -71.49410000
C      -47.81240000     -32.74040000     -71.31740000
C      -46.88220000     -33.43530000     -70.52570000
C      -47.28460000     -34.68620000     -70.03050000
C      -48.64900000     -35.15890000     -70.16710000
C      -49.56080000     -34.38260000     -70.85840000
H      -49.71090000     -32.67640000     -72.27070000
H      -45.85700000     -33.13960000     -70.28150000
H      -49.01040000     -36.14820000     -69.66530000
H      -50.61280000     -34.58680000     -71.04690000
C      -46.24250000     -35.55590000     -69.37240000
H      -46.63400000     -36.06470000     -68.49370000
H      -45.34670000     -35.03830000     -69.16220000
C      -47.51610000     -31.40700000     -72.00970000
H      -48.37000000     -30.71510000     -71.79120000
H      -46.61200000     -30.96330000     -71.56670000
S      -45.61240000     -36.90560000     -70.61390000
S      -47.27100000     -31.58660000     -73.81940000
C      -45.07970000     -35.90530000     -72.06290000
H      -45.42540000     -36.37650000     -73.01710000
H      -45.69970000     -34.92450000     -72.08330000
C      -46.10680000     -33.01040000     -74.00080000
H      -46.21330000     -33.40100000     -74.97340000
H      -46.41730000     -33.80630000     -73.27190000
C      -44.60620000     -32.70280000     -73.72720000
H      -44.01230000     -33.61240000     -73.80100000
H      -44.17060000     -32.09780000     -74.54220000
C      -43.54880000     -35.48740000     -72.11330000
H      -43.30010000     -35.30370000     -73.19170000
H      -42.87560000     -36.28780000     -71.68820000
C      -43.11790000     -34.32080000     -71.28890000
C      -42.25550000     -34.45270000     -70.18040000
C      -43.43990000     -32.87780000     -71.42660000
H      -41.91300000     -35.38500000     -69.82070000
C      -42.97530000     -32.13420000     -70.39140000
C      -44.13890000     -32.08140000     -72.40530000
C      -44.13180000     -30.70750000     -72.13460000
S      -42.05250000     -32.99480000     -69.13470000
S      -43.34680000     -30.48080000     -70.51630000
H      -44.41490000     -29.88860000     -72.75240000
