40
Properties=species:S:1:pos:R:3 #=T CELL(abcABC):=T 1.889726e+02=T 90.00000=T Traj:=T positionsangstrom=T Step:=T 0=T Bead:=T pbc="F F F"
C      -42.04590000     -31.58950000     -72.33940000
C      -42.24100000     -32.97650000     -72.63560000
C      -42.36440000     -33.96000000     -71.60510000
C      -42.31840000     -33.54010000     -70.26760000
C      -42.08640000     -32.20070000     -69.92370000
C      -41.89810000     -31.26320000     -70.95740000
H      -42.09230000     -30.86810000     -73.12720000
H      -42.49800000     -34.95790000     -71.91350000
H      -42.02090000     -31.81540000     -68.83620000
H      -41.75890000     -30.20930000     -70.69000000
C      -42.37560000     -34.64230000     -69.18990000
H      -41.43030000     -34.67080000     -68.64350000
H      -42.59450000     -35.62130000     -69.57070000
C      -42.48400000     -33.26680000     -74.08730000
H      -42.94110000     -32.50450000     -74.70060000
H      -41.52470000     -33.45210000     -74.38100000
S      -43.65370000     -34.29440000     -67.79830000
S      -43.34110000     -34.86460000     -74.42100000
C      -45.26180000     -34.46300000     -68.76190000
H      -45.31130000     -35.20080000     -69.51020000
H      -46.08610000     -34.72170000     -67.98050000
C      -45.08750000     -34.27080000     -74.27000000
H      -45.64320000     -35.20480000     -74.56820000
H      -45.27100000     -33.39750000     -74.96570000
C      -45.44830000     -33.87610000     -72.79340000
H      -45.20440000     -34.73800000     -72.23070000
H      -44.82400000     -33.04490000     -72.44350000
C      -45.52010000     -33.04420000     -69.38510000
H      -44.84160000     -32.91750000     -70.16350000
H      -45.24950000     -32.23430000     -68.69380000
C      -46.85690000     -32.94310000     -69.92740000
C      -47.85410000     -32.59770000     -69.01760000
C      -47.43210000     -33.15680000     -71.33450000
H      -47.69560000     -32.21810000     -67.96850000
C      -48.75420000     -32.87860000     -71.31490000
C      -46.90200000     -33.42990000     -72.65240000
C      -47.85650000     -33.52050000     -73.57800000
S      -49.43880000     -32.51130000     -69.78810000
S      -49.47400000     -33.04510000     -72.89190000
H      -47.68450000     -34.00640000     -74.56700000
