40
Properties=species:S:1:pos:R:3 #=T CELL(abcABC):=T 1.889726e+02=T 90.00000=T Traj:=T positionsangstrom=T Step:=T 0=T Bead:=T pbc="F F F"
C      -44.08680000     -36.38630000     -74.05730000
C      -44.92210000     -36.40890000     -72.90390000
C      -44.41140000     -36.20380000     -71.66240000
C      -42.98950000     -35.99370000     -71.56760000
C      -42.12270000     -36.06390000     -72.70670000
C      -42.71200000     -36.30350000     -73.91970000
H      -44.44420000     -36.53180000     -75.08070000
H      -45.03110000     -36.30330000     -70.75130000
H      -41.04450000     -35.95790000     -72.71680000
H      -42.05110000     -36.26900000     -74.75000000
C      -42.52140000     -35.84240000     -70.14940000
H      -41.55580000     -36.31060000     -69.86200000
H      -43.31510000     -36.20420000     -69.48120000
C      -46.42410000     -36.50010000     -73.24950000
H      -46.74360000     -35.72070000     -73.97340000
H      -46.52870000     -37.40970000     -73.78290000
S      -42.05580000     -34.07670000     -69.70610000
S      -47.59030000     -36.47280000     -71.92190000
C      -43.60240000     -32.96900000     -69.88800000
H      -44.47630000     -33.59300000     -69.70240000
H      -43.48430000     -32.27310000     -69.08890000
C      -48.03690000     -34.67960000     -71.70500000
H      -48.89770000     -34.64180000     -71.01430000
H      -48.38550000     -34.29730000     -72.58420000
C      -46.79310000     -33.83850000     -71.11280000
H      -46.60880000     -34.33150000     -70.14470000
H      -45.89940000     -33.84130000     -71.75530000
C      -43.68350000     -32.31480000     -71.23480000
H      -44.05730000     -33.02400000     -71.91700000
H      -42.75890000     -31.80890000     -71.59760000
C      -44.70780000     -31.19060000     -71.13970000
C      -44.31390000     -29.89760000     -71.00950000
C      -46.14410000     -31.28130000     -71.04390000
H      -43.23600000     -29.58890000     -70.97610000
C      -46.73690000     -30.01330000     -70.76840000
C      -47.12510000     -32.34080000     -70.88050000
C      -48.40370000     -31.90700000     -70.52770000
S      -45.56300000     -28.78010000     -70.63810000
S      -48.43230000     -30.10720000     -70.43190000
H      -49.25900000     -32.47210000     -70.44040000
