40
Properties=species:S:1:pos:R:3 #=T CELL(abcABC):=T 1.889726e+02=T 90.00000=T Traj:=T positionsangstrom=T Step:=T 0=T Bead:=T pbc="F F F"
C      -44.06490000     -36.19050000     -74.12800000
C      -44.90490000     -36.36120000     -72.95130000
C      -44.36670000     -36.11240000     -71.68470000
C      -42.99640000     -35.85680000     -71.53040000
C      -42.13220000     -35.83210000     -72.64560000
C      -42.68620000     -35.89430000     -73.93740000
H      -44.40730000     -36.33690000     -75.19050000
H      -45.01080000     -36.12760000     -70.82020000
H      -41.09200000     -35.42100000     -72.63060000
H      -41.97510000     -35.99700000     -74.71630000
C      -42.37850000     -35.73300000     -70.17030000
H      -41.36120000     -36.20630000     -70.14010000
H      -42.99270000     -36.28260000     -69.49490000
C      -46.39580000     -36.57390000     -73.17090000
H      -46.85240000     -35.88030000     -73.90830000
H      -46.54350000     -37.60470000     -73.57500000
S      -42.06490000     -33.99050000     -69.61290000
S      -47.38630000     -36.55800000     -71.51560000
C      -43.70330000     -33.26970000     -69.98130000
H      -44.50260000     -34.03720000     -69.82970000
H      -43.86620000     -32.55560000     -69.17300000
C      -48.00500000     -34.85210000     -71.43200000
H      -48.72450000     -34.79770000     -70.63860000
H      -48.54740000     -34.65060000     -72.40760000
C      -46.81280000     -33.84560000     -71.22300000
H      -46.17930000     -34.16810000     -70.36850000
H      -46.26090000     -33.93770000     -72.09450000
C      -43.88350000     -32.44760000     -71.37480000
H      -44.11650000     -33.20710000     -72.19010000
H      -42.88820000     -32.11940000     -71.58390000
C      -44.77740000     -31.25370000     -71.30130000
C      -44.27790000     -29.99320000     -71.25450000
C      -46.18250000     -31.34890000     -70.90490000
H      -43.27000000     -29.63470000     -71.30480000
C      -46.72790000     -30.10240000     -70.70940000
C      -47.19930000     -32.38340000     -70.98970000
C      -48.47420000     -31.91330000     -70.77820000
S      -45.60340000     -28.76930000     -70.87810000
S      -48.49330000     -30.15830000     -70.41370000
H      -49.40480000     -32.40420000     -70.75120000
