40
Properties=species:S:1:pos:R:3 #=T CELL(abcABC):=T 1.889726e+02=T 90.00000=T Traj:=T positionsangstrom=T Step:=T 0=T Bead:=T pbc="F F F"
C      -43.57020000     -30.31860000     -71.78100000
C      -42.72160000     -31.44960000     -72.06780000
C      -42.33070000     -32.20390000     -70.94060000
C      -42.75050000     -32.00060000     -69.66460000
C      -43.63090000     -30.91530000     -69.41150000
C      -44.13770000     -30.16340000     -70.50230000
H      -44.02560000     -29.71320000     -72.59320000
H      -41.62780000     -32.96230000     -71.11020000
H      -43.93850000     -30.59470000     -68.44430000
H      -44.67900000     -29.24130000     -70.31490000
C      -42.28690000     -32.82800000     -68.46450000
H      -41.79560000     -32.20600000     -67.66970000
H      -41.56210000     -33.63070000     -68.66600000
C      -42.27090000     -31.71020000     -73.46160000
H      -42.60120000     -30.93010000     -74.07990000
H      -41.15180000     -31.60210000     -73.55250000
S      -43.71980000     -33.68770000     -67.65990000
S      -42.55570000     -33.40400000     -74.11000000
C      -44.77070000     -34.31540000     -69.03290000
H      -44.21610000     -34.75920000     -69.82360000
H      -45.32780000     -35.14110000     -68.56180000
C      -44.35660000     -33.58900000     -74.30890000
H      -44.46360000     -34.65690000     -74.60140000
H      -44.75170000     -33.01800000     -75.19870000
C      -45.15300000     -33.28400000     -72.99480000
H      -44.57800000     -33.62800000     -72.18930000
H      -45.22800000     -32.19710000     -72.87710000
C      -45.81560000     -33.29670000     -69.50080000
H      -45.29570000     -32.47380000     -70.11710000
H      -46.28380000     -32.78570000     -68.53780000
C      -47.01390000     -34.06520000     -70.17520000
C      -48.14100000     -34.37490000     -69.46320000
C      -47.16630000     -34.26940000     -71.59470000
H      -48.26690000     -34.27840000     -68.42520000
C      -48.41680000     -34.81490000     -71.84750000
C      -46.53950000     -33.97980000     -72.84710000
C      -47.28350000     -34.33220000     -73.94860000
S      -49.42030000     -35.11650000     -70.44730000
S      -48.80850000     -35.07770000     -73.54600000
H      -46.99330000     -34.21630000     -74.93930000
