40
Properties=species:S:1:pos:R:3 #=T CELL(abcABC):=T 1.889726e+02=T 90.00000=T Traj:=T positionsangstrom=T Step:=T 0=T Bead:=T pbc="F F F"
C      -43.58210000     -30.42300000     -71.81050000
C      -42.77970000     -31.52960000     -72.07460000
C      -42.38150000     -32.37050000     -71.00330000
C      -42.68740000     -32.09590000     -69.69960000
C      -43.34080000     -30.90710000     -69.39960000
C      -43.76480000     -30.08500000     -70.43070000
H      -43.89320000     -29.74390000     -72.58600000
H      -41.91140000     -33.32660000     -71.24850000
H      -43.75290000     -30.78200000     -68.43000000
H      -44.47160000     -29.24210000     -70.20060000
C      -42.29400000     -33.02460000     -68.53450000
H      -41.61940000     -32.59660000     -67.87950000
H      -41.79720000     -33.93300000     -69.01500000
C      -42.27940000     -31.80870000     -73.45080000
H      -42.83340000     -31.03160000     -74.06000000
H      -41.17240000     -31.68480000     -73.57320000
S      -43.78170000     -33.62390000     -67.58820000
S      -42.55760000     -33.50970000     -74.16850000
C      -44.84490000     -34.38910000     -68.83230000
H      -44.25840000     -34.76580000     -69.62190000
H      -45.39150000     -35.22050000     -68.35370000
C      -44.44240000     -33.71840000     -74.25520000
H      -44.61190000     -34.77930000     -74.49270000
H      -44.74040000     -33.06540000     -75.06240000
C      -45.13330000     -33.36580000     -72.94320000
H      -44.52580000     -33.77870000     -72.13380000
H      -45.08550000     -32.22190000     -72.85550000
C      -45.71910000     -33.29780000     -69.61220000
H      -45.12360000     -32.88290000     -70.35100000
H      -46.00500000     -32.47380000     -68.99040000
C      -47.01880000     -33.92420000     -70.22250000
C      -48.02840000     -34.41540000     -69.44410000
C      -47.28500000     -34.12400000     -71.63840000
H      -48.21390000     -34.32970000     -68.40800000
C      -48.58130000     -34.62720000     -71.91440000
C      -46.58980000     -33.83990000     -72.89940000
C      -47.30770000     -34.31000000     -73.97540000
S      -49.39070000     -35.03920000     -70.36680000
S      -48.90470000     -34.91810000     -73.57460000
H      -46.75430000     -34.26000000     -74.92290000
