40
Properties=species:S:1:pos:R:3 #=T CELL(abcABC):=T 1.889726e+02=T 90.00000=T Traj:=T positionsangstrom=T Step:=T 0=T Bead:=T pbc="F F F"
C      -47.11950000     -32.71470000     -70.08060000
C      -46.24390000     -32.96360000     -69.00770000
C      -45.01070000     -32.31350000     -68.94860000
C      -44.60820000     -31.40180000     -69.91850000
C      -45.51980000     -31.01670000     -70.90440000
C      -46.69200000     -31.75880000     -71.04800000
H      -48.04880000     -33.22640000     -70.06710000
H      -44.14620000     -32.55680000     -68.27870000
H      -45.33600000     -30.18930000     -71.66390000
H      -47.34720000     -31.49690000     -71.82900000
C      -43.21100000     -30.78950000     -69.79740000
H      -42.75080000     -30.78420000     -68.77400000
H      -43.19580000     -29.69020000     -70.09180000
C      -46.75720000     -34.02040000     -68.02260000
H      -46.35640000     -33.94370000     -67.00240000
H      -47.80580000     -33.98860000     -68.06560000
S      -42.14390000     -31.44070000     -71.13730000
S      -46.52610000     -35.76100000     -68.61060000
C      -42.52300000     -33.26240000     -71.25210000
H      -41.60240000     -33.66400000     -70.86430000
H      -43.38970000     -33.52190000     -70.71590000
C      -44.84010000     -35.70850000     -69.43390000
H      -44.17700000     -36.47000000     -68.92960000
H      -44.27160000     -34.80980000     -69.23720000
C      -44.79880000     -35.92700000     -70.92370000
H      -43.79190000     -35.69690000     -71.27350000
H      -44.84030000     -36.95330000     -71.15970000
C      -42.70160000     -33.69250000     -72.68820000
H      -42.56820000     -34.80440000     -72.61640000
H      -41.99080000     -33.26030000     -73.36450000
C      -44.10100000     -33.40390000     -73.11210000
C      -44.38780000     -32.34790000     -73.98430000
C      -45.29400000     -34.10270000     -72.78140000
H      -43.66890000     -31.59730000     -74.36210000
C      -46.41270000     -33.59520000     -73.39500000
C      -45.65740000     -35.14790000     -71.89950000
C      -46.97690000     -35.57480000     -72.05040000
S      -46.09990000     -32.19050000     -74.36460000
S      -47.86150000     -34.48850000     -73.05700000
H      -47.46690000     -36.39670000     -71.55250000
