40
Properties=species:S:1:pos:R:3 #=T CELL(abcABC):=T 1.889726e+02=T 90.00000=T Traj:=T positionsangstrom=T Step:=T 0=T Bead:=T pbc="F F F"
C      -43.94750000     -29.84770000     -71.85790000
C      -43.08060000     -31.00980000     -72.02180000
C      -42.66270000     -31.74560000     -70.90810000
C      -43.23120000     -31.45190000     -69.66310000
C      -44.08200000     -30.30550000     -69.49760000
C      -44.48720000     -29.54650000     -70.56710000
H      -44.26900000     -29.36470000     -72.75320000
H      -42.02690000     -32.64920000     -71.09260000
H      -44.23300000     -30.10450000     -68.49430000
H      -45.32520000     -28.87370000     -70.41490000
C      -42.74730000     -32.30830000     -68.48070000
H      -42.05590000     -31.81120000     -67.76390000
H      -42.09900000     -33.21700000     -68.76030000
C      -42.63990000     -31.23610000     -73.48720000
H      -43.35490000     -30.90450000     -74.25360000
H      -41.71650000     -30.73780000     -73.74370000
S      -44.12470000     -33.08120000     -67.55670000
S      -42.36320000     -32.97720000     -73.90560000
C      -44.79350000     -34.16270000     -69.03640000
H      -43.93100000     -34.34160000     -69.73930000
H      -45.08090000     -35.08310000     -68.63700000
C      -44.01030000     -33.81060000     -73.96080000
H      -43.84290000     -34.75070000     -74.54400000
H      -44.61950000     -33.16240000     -74.57360000
C      -44.68800000     -34.00290000     -72.58780000
H      -44.12540000     -34.49690000     -71.82180000
H      -44.97100000     -32.99080000     -72.25420000
C      -45.95290000     -33.49650000     -69.57570000
H      -45.77010000     -32.64780000     -70.29640000
H      -46.44150000     -33.04230000     -68.66110000
C      -47.05490000     -34.31350000     -70.20050000
C      -48.29140000     -34.61670000     -69.63790000
C      -47.03610000     -34.69310000     -71.62410000
H      -48.69010000     -34.33360000     -68.64890000
C      -48.16640000     -35.35650000     -71.99270000
C      -46.08070000     -34.66620000     -72.72160000
C      -46.49590000     -35.29870000     -73.87090000
S      -49.40820000     -35.33530000     -70.73420000
S      -48.14450000     -35.90800000     -73.70000000
H      -45.97420000     -35.52180000     -74.77790000
