40
Properties=species:S:1:pos:R:3 #=T CELL(abcABC):=T 1.889726e+02=T 90.00000=T Traj:=T positionsangstrom=T Step:=T 0=T Bead:=T pbc="F F F"
C      -44.50380000     -29.63320000     -71.94550000
C      -43.45360000     -30.57650000     -72.01660000
C      -43.17900000     -31.23660000     -70.86880000
C      -43.76210000     -30.90450000     -69.59590000
C      -44.71850000     -29.88310000     -69.62560000
C      -45.21350000     -29.37270000     -70.78130000
H      -44.99980000     -29.26490000     -72.86770000
H      -42.42720000     -32.03470000     -70.94670000
H      -45.25760000     -29.63990000     -68.72610000
H      -46.17020000     -28.89020000     -70.79780000
C      -43.41170000     -31.59830000     -68.30960000
H      -43.22610000     -30.79420000     -67.54700000
H      -42.56170000     -32.18430000     -68.38980000
C      -42.75480000     -30.78310000     -73.33570000
H      -43.30710000     -30.32280000     -74.15310000
H      -41.74420000     -30.43430000     -73.19180000
S      -44.77040000     -32.68580000     -67.55050000
S      -42.49730000     -32.58890000     -73.87400000
C      -45.52230000     -33.82920000     -68.87190000
H      -44.62030000     -34.45210000     -69.15040000
H      -46.18760000     -34.35480000     -68.14850000
C      -44.11170000     -33.31720000     -73.56900000
H      -44.52970000     -33.89350000     -74.41250000
H      -44.74840000     -32.38980000     -73.51340000
C      -44.13840000     -34.25800000     -72.25650000
H      -43.12600000     -34.79490000     -72.23780000
H      -44.24750000     -33.68180000     -71.29820000
C      -46.30510000     -33.12630000     -69.88630000
H      -45.73510000     -32.45780000     -70.52540000
H      -47.06200000     -32.41300000     -69.44800000
C      -47.13230000     -34.18110000     -70.65810000
C      -48.47750000     -34.47940000     -70.38650000
C      -46.59580000     -35.06280000     -71.67600000
H      -49.09350000     -34.09290000     -69.60530000
C      -47.51970000     -36.08770000     -72.08480000
C      -45.30560000     -35.18440000     -72.30050000
C      -45.26690000     -36.26440000     -73.11230000
S      -49.06910000     -35.86170000     -71.36720000
S      -46.82700000     -37.11400000     -73.34010000
H      -44.45380000     -36.66020000     -73.67910000
