40
Properties=species:S:1:pos:R:3 #=T CELL(abcABC):=T 1.889726e+02=T 90.00000=T Traj:=T positionsangstrom=T Step:=T 0=T Bead:=T pbc="F F F"
C      -49.23920000     -33.03030000     -70.95550000
C      -47.95860000     -32.55800000     -71.19630000
C      -46.81200000     -33.31950000     -70.72210000
C      -47.04740000     -34.52900000     -70.00550000
C      -48.32770000     -35.11540000     -69.99050000
C      -49.42130000     -34.33530000     -70.56620000
H      -50.07010000     -32.45470000     -71.41750000
H      -45.83880000     -32.93250000     -70.78400000
H      -48.49490000     -36.08520000     -69.49860000
H      -50.40590000     -34.67690000     -70.49180000
C      -45.84850000     -35.26640000     -69.39150000
H      -46.05880000     -35.79120000     -68.49980000
H      -45.00510000     -34.66280000     -69.18690000
C      -47.78550000     -31.27490000     -71.87630000
H      -48.69870000     -30.75010000     -71.84620000
H      -47.05790000     -30.74510000     -71.31250000
S      -45.18450000     -36.68120000     -70.50710000
S      -47.14100000     -31.26380000     -73.62710000
C      -44.82730000     -36.16410000     -72.26750000
H      -44.87180000     -37.12630000     -72.75650000
H      -45.56180000     -35.47160000     -72.67250000
C      -46.25890000     -32.89260000     -73.86170000
H      -46.70170000     -33.37330000     -74.71130000
H      -46.53960000     -33.48440000     -72.95590000
C      -44.72010000     -32.77080000     -73.93210000
H      -44.38710000     -33.71610000     -74.30540000
H      -44.45330000     -32.10200000     -74.80670000
C      -43.40520000     -35.60460000     -72.43290000
H      -43.32890000     -35.16000000     -73.40460000
H      -42.60890000     -36.40780000     -72.35780000
C      -43.16470000     -34.51600000     -71.35410000
C      -42.55920000     -34.64170000     -70.10270000
C      -43.54140000     -33.17680000     -71.58730000
H      -42.21140000     -35.58990000     -69.64160000
C      -43.21090000     -32.37880000     -70.50920000
C      -44.05740000     -32.36280000     -72.67140000
C      -44.05220000     -31.00850000     -72.36170000
S      -42.58000000     -33.05690000     -69.10460000
S      -43.46810000     -30.68790000     -70.72980000
H      -44.12150000     -30.21090000     -73.14120000
