40
Properties=species:S:1:pos:R:3 #=T CELL(abcABC):=T 1.889726e+02=T 90.00000=T Traj:=T positionsangstrom=T Step:=T 0=T Bead:=T pbc="F F F"
C      -47.14480000     -32.48640000     -69.80350000
C      -46.12720000     -32.87630000     -68.87690000
C      -44.85960000     -32.27100000     -68.94040000
C      -44.50980000     -31.32980000     -69.93000000
C      -45.51470000     -31.07750000     -70.93890000
C      -46.88260000     -31.51210000     -70.77940000
H      -48.10790000     -32.94500000     -69.84530000
H      -44.19060000     -32.48120000     -68.12050000
H      -45.40930000     -30.26180000     -71.63390000
H      -47.62670000     -31.32950000     -71.58480000
C      -43.12640000     -30.74150000     -70.08850000
H      -42.81270000     -30.37860000     -69.12290000
H      -43.21580000     -29.76860000     -70.68260000
C      -46.29710000     -33.97900000     -67.89210000
H      -45.44120000     -34.09410000     -67.22470000
H      -47.11200000     -33.68830000     -67.21770000
S      -41.83880000     -31.86370000     -70.79570000
S      -46.79570000     -35.53430000     -68.73790000
C      -42.59710000     -33.49920000     -70.60960000
H      -41.84220000     -34.23820000     -70.21470000
H      -43.39540000     -33.42350000     -69.87180000
C      -45.33110000     -35.78460000     -69.86720000
H      -44.55400000     -36.46260000     -69.37200000
H      -44.89760000     -34.78600000     -69.88440000
C      -45.57420000     -36.36360000     -71.21890000
H      -44.58570000     -36.75980000     -71.52410000
H      -46.22300000     -37.25390000     -71.16000000
C      -42.93330000     -34.08020000     -71.94960000
H      -43.06440000     -35.15620000     -71.83090000
H      -42.08910000     -34.00510000     -72.68400000
C      -44.07930000     -33.57260000     -72.70540000
C      -44.07200000     -32.44060000     -73.44500000
C      -45.44970000     -34.13210000     -72.69300000
H      -43.21600000     -31.75360000     -73.68100000
C      -46.30230000     -33.42390000     -73.57430000
C      -46.12090000     -35.31950000     -72.20340000
C      -47.36850000     -35.43620000     -72.70160000
S      -45.51790000     -32.05880000     -74.32580000
S      -47.83950000     -34.14870000     -73.75230000
H      -48.21880000     -36.05520000     -72.40020000
