40
Properties=species:S:1:pos:R:3 #=T CELL(abcABC):=T 1.889726e+02=T 90.00000=T Traj:=T positionsangstrom=T Step:=T 0=T Bead:=T pbc="F F F"
C      -47.04540000     -32.50650000     -69.94010000
C      -46.04600000     -32.78050000     -69.00610000
C      -44.86660000     -32.07300000     -68.97910000
C      -44.56120000     -31.08110000     -69.96540000
C      -45.53450000     -30.77970000     -70.88670000
C      -46.75620000     -31.46310000     -70.78580000
H      -48.01550000     -32.91100000     -69.88130000
H      -44.11630000     -32.27080000     -68.14940000
H      -45.33540000     -30.12730000     -71.74690000
H      -47.57270000     -31.14160000     -71.45050000
C      -43.19640000     -30.48430000     -70.09240000
H      -42.75850000     -30.16870000     -69.16250000
H      -43.26140000     -29.66900000     -70.79660000
C      -46.39880000     -33.87220000     -67.98510000
H      -45.53620000     -34.10080000     -67.30530000
H      -47.30040000     -33.60760000     -67.37460000
S      -41.93240000     -31.65860000     -70.73160000
S      -46.85310000     -35.37580000     -68.92030000
C      -42.34050000     -33.48440000     -70.72030000
H      -41.40180000     -33.86910000     -70.46770000
H      -43.01380000     -33.71260000     -69.85730000
C      -45.22730000     -35.90080000     -69.73890000
H      -44.80860000     -36.75140000     -69.23840000
H      -44.55540000     -35.03470000     -69.73570000
C      -45.38170000     -36.42530000     -71.14460000
H      -44.41660000     -36.71390000     -71.45320000
H      -45.97370000     -37.35430000     -71.13940000
C      -42.88540000     -34.19290000     -71.95460000
H      -43.05550000     -35.24990000     -71.68020000
H      -42.04510000     -34.12080000     -72.58730000
C      -44.11990000     -33.67520000     -72.65840000
C      -44.06230000     -32.57960000     -73.45470000
C      -45.42040000     -34.30580000     -72.72660000
H      -43.25510000     -31.94470000     -73.71670000
C      -46.34130000     -33.58800000     -73.48810000
C      -46.11070000     -35.44300000     -72.09620000
C      -47.41300000     -35.67190000     -72.51540000
S      -45.59130000     -32.20170000     -74.28100000
S      -47.87760000     -34.36480000     -73.70890000
H      -48.17480000     -36.46450000     -72.30000000
