40
Properties=species:S:1:pos:R:3 #=T CELL(abcABC):=T 1.889726e+02=T 90.00000=T Traj:=T positionsangstrom=T Step:=T 0=T Bead:=T pbc="F F F"
C      -46.68300000     -32.47220000     -69.38910000
C      -45.82950000     -33.46580000     -68.77040000
C      -44.49470000     -33.26800000     -68.77680000
C      -43.83190000     -32.16680000     -69.36080000
C      -44.67900000     -31.22010000     -70.05590000
C      -46.07920000     -31.38460000     -70.04000000
H      -47.77240000     -32.55840000     -69.26360000
H      -43.95080000     -34.08410000     -68.31100000
H      -44.26310000     -30.27280000     -70.55570000
H      -46.69820000     -30.61860000     -70.53730000
C      -42.40690000     -32.13340000     -69.36510000
H      -41.97550000     -32.81560000     -68.57400000
H      -41.92860000     -31.21120000     -69.12870000
C      -46.42170000     -34.72800000     -68.29690000
H      -45.68440000     -35.30970000     -67.79760000
H      -47.26050000     -34.51270000     -67.57570000
S      -41.67380000     -32.68080000     -71.02520000
S      -47.12840000     -35.74720000     -69.69080000
C      -42.51950000     -34.27770000     -71.31700000
H      -41.69890000     -35.00810000     -71.14170000
H      -43.29570000     -34.44030000     -70.58280000
C      -45.62340000     -36.09320000     -70.65030000
H      -45.09790000     -37.00780000     -70.34850000
H      -44.99660000     -35.14040000     -70.36530000
C      -46.05780000     -36.22920000     -72.12470000
H      -45.17250000     -36.53740000     -72.71330000
H      -46.89360000     -36.95920000     -72.32220000
C      -43.14940000     -34.30530000     -72.68550000
H      -43.51110000     -35.34010000     -72.87980000
H      -42.38070000     -34.12660000     -73.46220000
C      -44.28200000     -33.27630000     -72.94240000
C      -44.12370000     -31.92850000     -73.26880000
C      -45.69850000     -33.70740000     -72.91540000
H      -43.30430000     -31.28540000     -73.30650000
C      -46.49050000     -32.61760000     -73.21590000
C      -46.52410000     -34.86260000     -72.62070000
C      -47.87910000     -34.57830000     -72.74880000
S      -45.62990000     -31.09970000     -73.45130000
S      -48.17210000     -32.94260000     -73.21920000
H      -48.71000000     -35.26210000     -72.46270000
