40
Properties=species:S:1:pos:R:3 #=T CELL(abcABC):=T 1.889726e+02=T 90.00000=T Traj:=T positionsangstrom=T Step:=T 0=T Bead:=T pbc="F F F"
C      -49.29340000     -33.02620000     -71.21090000
C      -47.99480000     -32.55520000     -71.13410000
C      -46.87580000     -33.24640000     -70.57370000
C      -47.08230000     -34.52330000     -69.99130000
C      -48.43030000     -35.04050000     -70.07370000
C      -49.50390000     -34.32690000     -70.66620000
H      -50.20510000     -32.45490000     -71.45490000
H      -46.00240000     -32.77520000     -70.62040000
H      -48.56060000     -36.09150000     -69.69000000
H      -50.47940000     -34.80030000     -70.77110000
C      -45.85780000     -35.26740000     -69.44640000
H      -46.13610000     -35.48090000     -68.34980000
H      -44.92790000     -34.60020000     -69.53240000
C      -47.55740000     -31.21870000     -71.68010000
H      -48.41260000     -30.51840000     -71.67230000
H      -46.70460000     -30.67530000     -71.16480000
S      -45.29960000     -36.78030000     -70.35780000
S      -47.22300000     -31.35180000     -73.55810000
C      -44.88920000     -36.17100000     -72.06140000
H      -45.16950000     -36.96160000     -72.79310000
H      -45.41010000     -35.23070000     -72.28560000
C      -46.19530000     -32.88500000     -73.91880000
H      -46.47280000     -33.16210000     -74.90730000
H      -46.50530000     -33.72870000     -73.21770000
C      -44.68720000     -32.72430000     -74.00470000
H      -44.27700000     -33.72210000     -74.26120000
H      -44.42030000     -32.08450000     -74.83810000
C      -43.34440000     -35.72010000     -72.24950000
H      -43.15880000     -35.66720000     -73.30590000
H      -42.64570000     -36.41930000     -71.82800000
C      -43.07210000     -34.45380000     -71.45510000
C      -42.73060000     -34.66740000     -70.14440000
C      -43.36180000     -33.03120000     -71.70190000
H      -42.47110000     -35.63470000     -69.71760000
C      -43.10820000     -32.28640000     -70.54300000
C      -43.98000000     -32.23260000     -72.75860000
C      -43.90600000     -30.86820000     -72.49310000
S      -42.66470000     -33.27640000     -69.12020000
S      -43.32350000     -30.56340000     -70.82270000
H      -44.46380000     -30.11470000     -73.03060000
