40
Properties=species:S:1:pos:R:3 #=T CELL(abcABC):=T 1.889726e+02=T 90.00000=T Traj:=T positionsangstrom=T Step:=T 0=T Bead:=T pbc="F F F"
C      -46.91890000     -32.63410000     -69.41470000
C      -46.14880000     -33.56830000     -68.71240000
C      -44.74480000     -33.32350000     -68.62310000
C      -44.17300000     -32.17450000     -69.20270000
C      -44.95050000     -31.25970000     -69.89560000
C      -46.33390000     -31.49450000     -69.92750000
H      -47.99810000     -32.78850000     -69.50710000
H      -44.14140000     -34.13790000     -68.34360000
H      -44.48260000     -30.40380000     -70.42690000
H      -46.93720000     -30.82780000     -70.52970000
C      -42.70420000     -32.07430000     -69.22850000
H      -42.35740000     -32.54270000     -68.37880000
H      -42.29110000     -31.04730000     -69.19480000
C      -46.67840000     -34.89160000     -68.13990000
H      -45.89560000     -35.45840000     -67.62300000
H      -47.49400000     -34.82640000     -67.49090000
S      -42.05450000     -32.47690000     -70.86380000
S      -47.29910000     -35.93450000     -69.51500000
C      -42.57220000     -34.18340000     -71.23880000
H      -41.80660000     -34.80090000     -70.86280000
H      -43.43250000     -34.37810000     -70.57300000
C      -45.77480000     -36.27710000     -70.51660000
H      -45.37870000     -37.30290000     -70.36690000
H      -44.94940000     -35.61040000     -70.20550000
C      -45.98120000     -36.10210000     -72.08460000
H      -45.00810000     -36.34790000     -72.57910000
H      -46.89180000     -36.81330000     -72.24990000
C      -42.95610000     -34.42820000     -72.73290000
H      -43.30670000     -35.49050000     -72.83600000
H      -42.01540000     -34.44020000     -73.34810000
C      -44.04480000     -33.47570000     -73.17110000
C      -43.73380000     -32.27450000     -73.80280000
C      -45.44330000     -33.62200000     -73.01510000
H      -42.72310000     -32.00420000     -74.17230000
C      -46.16040000     -32.50370000     -73.43320000
C      -46.34870000     -34.71170000     -72.55600000
C      -47.65790000     -34.27550000     -72.55810000
S      -45.11370000     -31.19200000     -74.00720000
S      -47.89550000     -32.61170000     -73.12210000
H      -48.58850000     -34.72380000     -72.24100000
