40
Properties=species:S:1:pos:R:3 #=T CELL(abcABC):=T 1.889726e+02=T 90.00000=T Traj:=T positionsangstrom=T Step:=T 0=T Bead:=T pbc="F F F"
C      -46.58750000     -32.22390000     -69.20920000
C      -46.02930000     -33.43470000     -68.82420000
C      -44.62620000     -33.52490000     -68.97790000
C      -43.80980000     -32.40730000     -69.31070000
C      -44.45680000     -31.19100000     -69.62910000
C      -45.82680000     -31.10480000     -69.49770000
H      -47.63230000     -32.13230000     -69.05030000
H      -44.23530000     -34.51080000     -68.71960000
H      -43.72060000     -30.40700000     -69.96000000
H      -46.34060000     -30.16080000     -69.78390000
C      -42.31060000     -32.70230000     -69.43560000
H      -42.00130000     -33.68270000     -69.00900000
H      -41.73770000     -31.93450000     -68.95080000
C      -46.86400000     -34.57220000     -68.34450000
H      -46.53080000     -35.03890000     -67.45360000
H      -47.90590000     -34.21200000     -68.09620000
S      -41.75690000     -32.61200000     -71.20720000
S      -47.12230000     -36.00350000     -69.57640000
C      -42.41290000     -34.20880000     -71.88750000
H      -41.51670000     -34.87430000     -71.88900000
H      -43.14340000     -34.54100000     -71.17040000
C      -45.53880000     -36.21280000     -70.56620000
H      -45.08720000     -37.18680000     -70.33140000
H      -44.72800000     -35.43600000     -70.36450000
C      -45.70080000     -36.15290000     -72.05630000
H      -44.71900000     -36.29990000     -72.48900000
H      -46.37750000     -36.89600000     -72.36460000
C      -43.07900000     -34.01740000     -73.32770000
H      -43.32460000     -34.97800000     -73.75870000
H      -42.32940000     -33.48980000     -73.88860000
C      -44.31610000     -33.12270000     -73.25340000
C      -44.33220000     -31.82570000     -73.66540000
C      -45.64220000     -33.53980000     -72.83830000
H      -43.46710000     -31.22750000     -73.88470000
C      -46.59790000     -32.47040000     -72.99960000
C      -46.27100000     -34.79870000     -72.51630000
C      -47.62200000     -34.66590000     -72.54070000
S      -45.86260000     -30.99100000     -73.61340000
S      -48.18850000     -33.06740000     -72.79730000
H      -48.35710000     -35.43140000     -72.27700000
