40
Properties=species:S:1:pos:R:3 #=T CELL(abcABC):=T 1.889726e+02=T 90.00000=T Traj:=T positionsangstrom=T Step:=T 0=T Bead:=T pbc="F F F"
C      -49.02420000     -33.24240000     -71.45950000
C      -47.77370000     -32.67000000     -71.16860000
C      -46.85800000     -33.45210000     -70.42030000
C      -47.24010000     -34.69390000     -69.90890000
C      -48.54330000     -35.18080000     -70.12520000
C      -49.41490000     -34.41230000     -70.89530000
H      -49.67640000     -32.68750000     -72.10660000
H      -45.80610000     -33.04810000     -70.31630000
H      -48.78730000     -36.13980000     -69.77700000
H      -50.40030000     -34.82450000     -70.97910000
C      -46.18360000     -35.47100000     -69.19960000
H      -46.47650000     -35.94510000     -68.24890000
H      -45.36610000     -34.80990000     -68.83250000
C      -47.31260000     -31.36470000     -71.81830000
H      -48.01420000     -30.53530000     -71.65340000
H      -46.33090000     -31.20320000     -71.35470000
S      -45.64170000     -36.89280000     -70.17300000
S      -47.16020000     -31.46830000     -73.63180000
C      -45.26970000     -36.11110000     -71.80360000
H      -45.33390000     -36.87950000     -72.56410000
H      -46.06700000     -35.32670000     -71.92320000
C      -46.18820000     -32.93380000     -74.07050000
H      -46.46280000     -33.18410000     -75.14790000
H      -46.39600000     -33.71390000     -73.39380000
C      -44.62410000     -32.78440000     -73.99460000
H      -44.21590000     -33.79280000     -74.18480000
H      -44.28590000     -32.13620000     -74.83740000
C      -43.88230000     -35.53560000     -72.01430000
H      -43.82760000     -35.28590000     -73.06210000
H      -43.25200000     -36.35570000     -71.80210000
C      -43.41280000     -34.38500000     -71.16730000
C      -42.70320000     -34.42490000     -69.98160000
C      -43.53880000     -32.96870000     -71.60070000
H      -42.49420000     -35.29510000     -69.36810000
C      -42.92180000     -32.10090000     -70.64420000
C      -44.09770000     -32.23170000     -72.69960000
C      -43.97390000     -30.88790000     -72.49670000
S      -42.20350000     -32.92350000     -69.32220000
S      -43.06790000     -30.42500000     -70.99240000
H      -44.13060000     -30.07560000     -73.20600000
