40
Properties=species:S:1:pos:R:3 #=T CELL(abcABC):=T 1.889726e+02=T 90.00000=T Traj:=T positionsangstrom=T Step:=T 0=T Bead:=T pbc="F F F"
C      -46.75750000     -33.26520000     -69.10220000
C      -45.63600000     -34.12020000     -68.83190000
C      -44.36200000     -33.59960000     -69.08890000
C      -44.12650000     -32.29010000     -69.49090000
C      -45.20610000     -31.48570000     -69.66900000
C      -46.53790000     -31.91230000     -69.34480000
H      -47.74370000     -33.67180000     -69.12020000
H      -43.49820000     -34.27060000     -69.11530000
H      -45.06220000     -30.46810000     -70.03820000
H      -47.35770000     -31.27790000     -69.52300000
C      -42.69360000     -31.99250000     -69.73950000
H      -42.13030000     -32.75890000     -69.21900000
H      -42.44980000     -31.03540000     -69.26240000
C      -45.80920000     -35.60170000     -68.43230000
H      -44.88660000     -36.02920000     -68.03020000
H      -46.70510000     -35.59480000     -67.76570000
S      -42.05130000     -31.85550000     -71.40470000
S      -46.36530000     -36.67910000     -69.82950000
C      -42.29980000     -33.54890000     -71.98120000
H      -41.32520000     -34.06860000     -72.01340000
H      -42.84910000     -34.13180000     -71.15420000
C      -45.15990000     -36.23690000     -71.11190000
H      -44.33340000     -36.95430000     -71.13110000
H      -44.72460000     -35.22230000     -70.99400000
C      -45.83770000     -36.04540000     -72.44080000
H      -45.19590000     -36.22060000     -73.30330000
H      -46.67170000     -36.74510000     -72.53340000
C      -43.13390000     -33.72060000     -73.29540000
H      -43.34180000     -34.81280000     -73.31590000
H      -42.65200000     -33.35630000     -74.18590000
C      -44.46230000     -32.97510000     -73.25230000
C      -44.42300000     -31.66010000     -73.52720000
C      -45.74780000     -33.38730000     -72.74890000
H      -43.67470000     -30.95880000     -74.00440000
C      -46.60680000     -32.28610000     -72.69730000
C      -46.40050000     -34.66830000     -72.54300000
C      -47.75430000     -34.53980000     -72.38240000
S      -45.87290000     -30.81370000     -73.13090000
S      -48.29670000     -32.87540000     -72.42160000
H      -48.40660000     -35.36210000     -72.17010000
