40
Properties=species:S:1:pos:R:3 #=T CELL(abcABC):=T 1.889726e+02=T 90.00000=T Traj:=T positionsangstrom=T Step:=T 0=T Bead:=T pbc="F F F"
C      -46.61920000     -33.43750000     -69.16960000
C      -45.59550000     -34.39800000     -68.89010000
C      -44.26770000     -33.93750000     -68.63470000
C      -43.77500000     -32.65890000     -69.06740000
C      -44.76590000     -31.73760000     -69.45220000
C      -46.11440000     -32.16290000     -69.42520000
H      -47.64780000     -33.58410000     -69.31030000
H      -43.51660000     -34.72340000     -68.45530000
H      -44.51180000     -30.68650000     -69.76190000
H      -46.85280000     -31.38990000     -69.66650000
C      -42.34670000     -32.19330000     -69.17800000
H      -41.66690000     -32.93410000     -68.83690000
H      -42.31710000     -31.24000000     -68.58840000
C      -45.94070000     -35.77830000     -68.57320000
H      -45.11970000     -36.23020000     -68.10590000
H      -46.78030000     -35.84270000     -67.86340000
S      -42.06020000     -31.55960000     -70.95330000
S      -46.13260000     -36.80230000     -70.11140000
C      -42.38950000     -33.20370000     -71.90650000
H      -41.44110000     -33.75820000     -72.11170000
H      -42.96010000     -33.95350000     -71.30360000
C      -44.91010000     -36.00720000     -71.17220000
H      -44.06790000     -36.72290000     -71.22290000
H      -44.49990000     -35.07050000     -70.86650000
C      -45.31320000     -35.86050000     -72.67710000
H      -44.46140000     -35.66350000     -73.34720000
H      -45.68260000     -36.81880000     -73.02430000
C      -43.17650000     -32.97730000     -73.19900000
H      -43.07320000     -33.90670000     -73.75680000
H      -42.50390000     -32.28360000     -73.75590000
C      -44.60030000     -32.42800000     -73.06370000
C      -44.98050000     -31.12450000     -73.30230000
C      -45.83930000     -33.27470000     -72.89310000
H      -44.42730000     -30.26520000     -73.61840000
C      -46.91330000     -32.43750000     -72.93090000
C      -46.21950000     -34.66870000     -72.85060000
C      -47.63380000     -34.78570000     -72.75020000
S      -46.64080000     -30.78070000     -73.10920000
S      -48.43480000     -33.25020000     -72.84060000
H      -48.29120000     -35.63440000     -72.51740000
