40
Properties=species:S:1:pos:R:3 #=T CELL(abcABC):=T 1.889726e+02=T 90.00000=T Traj:=T positionsangstrom=T Step:=T 0=T Bead:=T pbc="F F F"
C      -46.48150000     -33.71750000     -68.89790000
C      -45.31800000     -34.46760000     -68.91200000
C      -44.09740000     -33.79300000     -68.98460000
C      -44.04830000     -32.34970000     -69.04660000
C      -45.24640000     -31.65810000     -69.23750000
C      -46.45500000     -32.34280000     -69.05340000
H      -47.38400000     -34.28350000     -68.79950000
H      -43.23670000     -34.35640000     -68.92360000
H      -45.17230000     -30.64690000     -69.47000000
H      -47.43030000     -31.85280000     -69.09970000
C      -42.66390000     -31.79740000     -69.19760000
H      -41.93570000     -32.50390000     -68.77350000
H      -42.50840000     -30.86520000     -68.77330000
C      -45.47090000     -35.94720000     -68.82910000
H      -44.58130000     -36.51250000     -68.57130000
H      -46.21090000     -36.19700000     -68.11010000
S      -42.27950000     -31.42200000     -71.02470000
S      -46.14650000     -36.65860000     -70.47990000
C      -42.41250000     -32.97800000     -71.89230000
H      -41.47050000     -33.59580000     -71.87530000
H      -43.17030000     -33.49380000     -71.30780000
C      -44.66070000     -36.46090000     -71.60010000
H      -44.08840000     -37.36000000     -71.73130000
H      -44.02150000     -35.66930000     -71.14660000
C      -45.11690000     -35.84640000     -72.99380000
H      -44.20030000     -35.44650000     -73.47140000
H      -45.53250000     -36.69130000     -73.60080000
C      -43.23260000     -32.81330000     -73.26320000
H      -43.27060000     -33.78730000     -73.73100000
H      -42.72360000     -32.14920000     -73.83950000
C      -44.69010000     -32.35400000     -73.06210000
C      -44.97310000     -31.05740000     -72.98840000
C      -45.76700000     -33.27090000     -72.94080000
H      -44.42690000     -30.13850000     -72.95220000
C      -46.94030000     -32.52340000     -72.89290000
C      -46.03210000     -34.67620000     -72.85480000
C      -47.40480000     -34.96950000     -72.66190000
S      -46.66380000     -30.80390000     -72.75050000
S      -48.34360000     -33.50210000     -72.67340000
H      -47.84990000     -35.93140000     -72.61130000
