40
Properties=species:S:1:pos:R:3 #=T CELL(abcABC):=T 1.889726e+02=T 90.00000=T Traj:=T positionsangstrom=T Step:=T 0=T Bead:=T pbc="F F F"
C      -46.70940000     -33.33820000     -69.07510000
C      -45.67620000     -34.29320000     -68.85100000
C      -44.29360000     -33.86210000     -68.85030000
C      -43.94920000     -32.57760000     -69.16500000
C      -44.99410000     -31.67400000     -69.59100000
C      -46.32380000     -32.05660000     -69.48790000
H      -47.76390000     -33.49180000     -68.84070000
H      -43.54480000     -34.60940000     -68.32550000
H      -44.84030000     -30.58270000     -69.90330000
H      -47.06630000     -31.26940000     -69.62220000
C      -42.40100000     -32.24740000     -69.22500000
H      -41.77450000     -33.12020000     -68.88990000
H      -41.93460000     -31.49040000     -68.59990000
C      -45.98510000     -35.74070000     -68.55220000
H      -45.20260000     -36.23420000     -67.87340000
H      -46.94020000     -35.96820000     -67.99850000
S      -41.89970000     -31.87550000     -70.96920000
S      -46.04300000     -36.70970000     -70.10080000
C      -42.48880000     -33.38930000     -71.88550000
H      -41.64400000     -34.05940000     -72.07590000
H      -43.13130000     -33.86630000     -71.12060000
C      -44.70140000     -36.15670000     -71.28760000
H      -43.95630000     -36.96570000     -71.28140000
H      -44.22860000     -35.29430000     -70.78390000
C      -45.29370000     -35.75930000     -72.62420000
H      -44.42680000     -35.46580000     -73.22130000
H      -45.69410000     -36.62620000     -73.16500000
C      -43.20350000     -33.07320000     -73.10750000
H      -43.30150000     -34.02420000     -73.65570000
H      -42.72240000     -32.42910000     -73.82020000
C      -44.61620000     -32.47800000     -73.01580000
C      -44.82030000     -31.13670000     -73.14520000
C      -45.88570000     -33.23210000     -72.95360000
H      -43.99390000     -30.52750000     -73.43660000
C      -46.96510000     -32.35450000     -73.03860000
C      -46.24080000     -34.61410000     -72.69930000
C      -47.62550000     -34.74990000     -72.37760000
S      -46.54760000     -30.67800000     -73.34170000
S      -48.47460000     -33.22250000     -72.71520000
H      -48.10780000     -35.75060000     -72.34830000
