40
Properties=species:S:1:pos:R:3 #=T CELL(abcABC):=T 1.889726e+02=T 90.00000=T Traj:=T positionsangstrom=T Step:=T 0=T Bead:=T pbc="F F F"
C      -44.80310000     -37.12390000     -69.96350000
C      -44.83280000     -36.15600000     -68.94000000
C      -43.86070000     -35.11280000     -68.90600000
C      -42.94570000     -35.00110000     -69.94360000
C      -42.83020000     -36.06670000     -70.85400000
C      -43.79180000     -37.04880000     -70.88700000
H      -45.54540000     -37.82840000     -69.96590000
H      -43.94650000     -34.36710000     -68.09370000
H      -42.07680000     -36.05110000     -71.67860000
H      -43.65380000     -37.80290000     -71.65650000
C      -41.95900000     -33.84330000     -70.00210000
H      -40.96050000     -34.13610000     -69.55650000
H      -42.36820000     -32.91340000     -69.48100000
C      -45.96910000     -36.20520000     -67.96020000
H      -46.64560000     -37.00820000     -68.22360000
H      -45.66050000     -36.51250000     -66.91080000
S      -41.34570000     -33.37900000     -71.65700000
S      -46.92810000     -34.55340000     -67.83750000
C      -42.96130000     -32.36680000     -72.20670000
H      -43.48790000     -31.89580000     -71.36270000
H      -42.82050000     -31.59900000     -72.85380000
C      -47.49480000     -34.04790000     -69.52480000
H      -48.47590000     -33.64630000     -69.51620000
H      -47.38450000     -34.91240000     -70.19050000
C      -46.47830000     -32.99490000     -70.17720000
H      -46.15310000     -32.26240000     -69.43320000
H      -45.43450000     -33.37920000     -70.38980000
C      -44.01160000     -33.32080000     -72.86520000
H      -44.29390000     -34.14820000     -72.24030000
H      -43.52250000     -33.72990000     -73.69210000
C      -45.16270000     -32.50410000     -73.33010000
C      -45.11170000     -31.97010000     -74.60770000
C      -46.30420000     -31.99760000     -72.62350000
H      -44.23100000     -32.01230000     -75.24430000
C      -47.09820000     -31.13330000     -73.43880000
C      -46.98660000     -32.14020000     -71.37820000
C      -48.21510000     -31.49600000     -71.28450000
S      -46.44860000     -30.91610000     -75.01610000
S      -48.58240000     -30.59660000     -72.75450000
H      -48.96740000     -31.40510000     -70.54800000
