40
Properties=species:S:1:pos:R:3 #=T CELL(abcABC):=T 1.889726e+02=T 90.00000=T Traj:=T positionsangstrom=T Step:=T 0=T Bead:=T pbc="F F F"
C      -46.60080000     -34.22380000     -69.51280000
C      -45.32620000     -34.70880000     -69.29050000
C      -44.26980000     -33.81560000     -69.12720000
C      -44.51110000     -32.41700000     -69.21890000
C      -45.80550000     -31.95210000     -69.43490000
C      -46.88420000     -32.85200000     -69.55400000
H      -47.43470000     -34.89420000     -69.43320000
H      -43.38330000     -34.24050000     -68.78880000
H      -45.93960000     -30.93170000     -69.46360000
H      -47.90710000     -32.58270000     -69.46000000
C      -43.41780000     -31.45190000     -69.01530000
H      -42.61490000     -31.93050000     -68.30830000
H      -43.72320000     -30.51210000     -68.64200000
C      -45.13590000     -36.20720000     -69.08590000
H      -44.13210000     -36.30100000     -68.70640000
H      -45.82890000     -36.54860000     -68.28220000
S      -42.58020000     -31.12080000     -70.68690000
S      -45.32510000     -37.11350000     -70.68950000
C      -42.41110000     -32.69640000     -71.54890000
H      -41.33280000     -32.87770000     -71.54850000
H      -43.01050000     -33.44610000     -71.00070000
C      -44.26850000     -36.03920000     -71.79270000
H      -43.28940000     -36.55680000     -71.92150000
H      -44.05540000     -35.13250000     -71.20030000
C      -44.96540000     -35.64290000     -73.13290000
H      -44.22960000     -35.34130000     -73.90720000
H      -45.55700000     -36.55710000     -73.45830000
C      -43.13230000     -32.75790000     -72.95270000
H      -43.03640000     -33.75560000     -73.42860000
H      -42.57720000     -32.10000000     -73.62510000
C      -44.61040000     -32.33840000     -72.85610000
C      -44.89800000     -30.99000000     -72.79480000
C      -45.78070000     -33.15790000     -72.76430000
H      -44.29060000     -30.11110000     -72.80070000
C      -46.91330000     -32.44220000     -72.50120000
C      -45.99970000     -34.56030000     -73.02030000
C      -47.38150000     -34.89730000     -72.93330000
S      -46.66620000     -30.73140000     -72.43100000
S      -48.34300000     -33.42990000     -72.65790000
H      -47.87900000     -35.85320000     -72.91900000
