40
Properties=species:S:1:pos:R:3 #=T CELL(abcABC):=T 1.889726e+02=T 90.00000=T Traj:=T positionsangstrom=T Step:=T 0=T Bead:=T pbc="F F F"
C      -48.93530000     -33.34170000     -71.62430000
C      -47.67250000     -32.78160000     -71.26610000
C      -46.90960000     -33.50300000     -70.35640000
C      -47.36040000     -34.71690000     -69.83110000
C      -48.68790000     -35.09480000     -69.99220000
C      -49.41380000     -34.52000000     -71.06330000
H      -49.65610000     -32.79030000     -72.23420000
H      -45.87810000     -33.17470000     -69.98150000
H      -49.05330000     -35.95360000     -69.47670000
H      -50.33770000     -34.95630000     -71.31440000
C      -46.48040000     -35.56790000     -69.00610000
H      -46.96450000     -36.20940000     -68.29090000
H      -45.69260000     -34.90350000     -68.60600000
C      -47.21120000     -31.41170000     -71.79310000
H      -47.96930000     -30.67020000     -71.60030000
H      -46.23410000     -31.03170000     -71.40180000
S      -45.73430000     -36.90220000     -70.09530000
S      -47.22950000     -31.36370000     -73.71700000
C      -45.22880000     -36.02470000     -71.66510000
H      -45.41110000     -36.63720000     -72.53420000
H      -45.91900000     -35.15170000     -71.66060000
C      -46.21010000     -32.88550000     -74.00620000
H      -46.50290000     -33.45980000     -74.90660000
H      -46.53530000     -33.55740000     -73.18250000
C      -44.72840000     -32.71600000     -74.05680000
H      -44.35190000     -33.63360000     -74.43360000
H      -44.51620000     -31.96360000     -74.82480000
C      -43.76070000     -35.66910000     -71.81720000
H      -43.48700000     -35.65740000     -72.84190000
H      -43.16920000     -36.48880000     -71.33780000
C      -43.33330000     -34.33190000     -71.16610000
C      -42.72410000     -34.49790000     -69.95330000
C      -43.49540000     -32.95210000     -71.61240000
H      -42.61770000     -35.41200000     -69.40100000
C      -42.91890000     -32.07670000     -70.69670000
C      -43.94880000     -32.20950000     -72.82610000
C      -43.76700000     -30.85300000     -72.64480000
S      -42.24040000     -32.92060000     -69.29430000
S      -42.90730000     -30.39640000     -71.09210000
H      -43.91230000     -30.00690000     -73.29470000
