40
Properties=species:S:1:pos:R:3 #=T CELL(abcABC):=T 1.889726e+02=T 90.00000=T Traj:=T positionsangstrom=T Step:=T 0=T Bead:=T pbc="F F F"
C      -44.94240000     -37.12160000     -70.03550000
C      -45.02040000     -36.02240000     -69.09930000
C      -44.03040000     -35.05520000     -69.08730000
C      -42.84680000     -35.19630000     -69.93340000
C      -42.79220000     -36.22990000     -70.86740000
C      -43.84610000     -37.20180000     -70.93520000
H      -45.54930000     -37.94510000     -70.00470000
H      -44.03190000     -34.18670000     -68.42330000
H      -41.93720000     -36.28030000     -71.52270000
H      -43.75110000     -38.00660000     -71.64710000
C      -41.63710000     -34.27720000     -69.94020000
H      -40.82390000     -34.99680000     -69.91710000
H      -41.62840000     -33.56360000     -69.19160000
C      -46.24060000     -35.87840000     -68.15510000
H      -47.04500000     -36.45390000     -68.53230000
H      -46.01230000     -36.21660000     -67.15070000
S      -41.44280000     -33.33340000     -71.51540000
S      -46.66620000     -34.12740000     -67.88400000
C      -43.03670000     -32.48650000     -71.67900000
H      -43.43100000     -32.00720000     -70.74700000
H      -42.86680000     -31.73130000     -72.42590000
C      -47.01720000     -33.58910000     -69.57410000
H      -48.08870000     -33.59940000     -69.81350000
H      -46.66000000     -34.18290000     -70.41880000
C      -46.43310000     -32.23940000     -69.97570000
H      -46.48000000     -31.44050000     -69.29570000
H      -45.32260000     -32.43970000     -69.95720000
C      -44.18670000     -33.36900000     -72.28530000
H      -44.75040000     -33.98710000     -71.54280000
H      -43.76870000     -34.05790000     -72.94500000
C      -45.19060000     -32.52830000     -73.06980000
C      -45.18090000     -32.45180000     -74.48960000
C      -46.34580000     -31.86020000     -72.58530000
H      -44.42120000     -32.74910000     -75.14340000
C      -47.12400000     -31.34560000     -73.61760000
C      -46.95110000     -31.71120000     -71.27890000
C      -48.21060000     -31.26370000     -71.41560000
S      -46.47120000     -31.56800000     -75.22280000
S      -48.64800000     -30.70180000     -73.02210000
H      -48.92040000     -31.05700000     -70.64970000
