40
Properties=species:S:1:pos:R:3 #=T CELL(abcABC):=T 1.889726e+02=T 90.00000=T Traj:=T positionsangstrom=T Step:=T 0=T Bead:=T pbc="F F F"
C      -44.82930000     -37.11160000     -69.94860000
C      -44.90850000     -36.08850000     -68.98370000
C      -43.95250000     -35.03510000     -69.00720000
C      -42.99760000     -35.05880000     -69.99730000
C      -42.82280000     -36.18950000     -70.90960000
C      -43.80780000     -37.20940000     -70.89430000
H      -45.58110000     -37.96620000     -69.86530000
H      -43.96920000     -34.23200000     -68.31080000
H      -41.94670000     -36.35220000     -71.49320000
H      -43.63220000     -38.02970000     -71.54330000
C      -41.85890000     -34.06460000     -69.89620000
H      -40.90610000     -34.29020000     -69.48850000
H      -42.12010000     -33.17300000     -69.33050000
C      -46.06160000     -36.07660000     -68.02440000
H      -46.95490000     -36.69220000     -68.30600000
H      -45.70800000     -36.31440000     -67.05230000
S      -41.41280000     -33.35320000     -71.53740000
S      -46.82720000     -34.41200000     -67.81120000
C      -42.86500000     -32.32760000     -72.17690000
H      -43.18280000     -31.62370000     -71.44950000
H      -42.52640000     -31.73900000     -73.07790000
C      -47.26380000     -33.96500000     -69.62700000
H      -48.35860000     -33.77240000     -69.66400000
H      -47.15450000     -34.91280000     -70.22670000
C      -46.43100000     -32.79020000     -70.14990000
H      -46.50180000     -31.97170000     -69.42390000
H      -45.46690000     -33.20230000     -70.24940000
C      -44.05710000     -33.24370000     -72.58370000
H      -44.52640000     -33.67360000     -71.76070000
H      -43.70500000     -34.03720000     -73.28630000
C      -45.20620000     -32.53560000     -73.33520000
C      -45.05570000     -32.04930000     -74.60270000
C      -46.39640000     -31.95860000     -72.65670000
H      -44.25140000     -32.19490000     -75.30310000
C      -47.15980000     -31.17120000     -73.51460000
C      -46.99510000     -32.13230000     -71.39080000
C      -48.20960000     -31.49350000     -71.29330000
S      -46.44350000     -31.07540000     -75.12610000
S      -48.60370000     -30.61820000     -72.77540000
H      -48.95730000     -31.34250000     -70.50200000
