40
Properties=species:S:1:pos:R:3 #=T CELL(abcABC):=T 1.889726e+02=T 90.00000=T Traj:=T positionsangstrom=T Step:=T 0=T Bead:=T pbc="F F F"
C      -44.99170000     -30.11750000     -73.42140000
C      -45.50430000     -30.11450000     -72.11820000
C      -46.68810000     -30.87740000     -71.91680000
C      -47.25790000     -31.70690000     -72.87380000
C      -46.51610000     -31.89650000     -74.04110000
C      -45.40550000     -31.03820000     -74.32840000
H      -44.14300000     -29.42150000     -73.57870000
H      -47.13830000     -30.93090000     -70.89560000
H      -46.69130000     -32.64530000     -74.80370000
H      -45.05380000     -31.14340000     -75.32850000
C      -48.49490000     -32.52880000     -72.47540000
H      -49.09260000     -32.90530000     -73.28290000
H      -49.09140000     -31.99830000     -71.74460000
C      -44.83250000     -29.38730000     -71.00960000
H      -44.72130000     -28.33410000     -71.37290000
H      -45.43480000     -29.39490000     -70.08220000
S      -47.86360000     -34.10530000     -71.68570000
S      -43.05360000     -29.93620000     -70.75840000
C      -47.97050000     -33.70290000     -69.77590000
H      -48.44750000     -32.75470000     -69.71370000
H      -48.69810000     -34.44930000     -69.43300000
C      -42.98350000     -31.57900000     -71.53390000
H      -41.91370000     -31.80090000     -71.46710000
H      -43.30750000     -31.51730000     -72.57260000
C      -43.88800000     -32.57040000     -70.82180000
H      -43.87930000     -32.46990000     -69.70920000
H      -44.86140000     -32.21530000     -71.03440000
C      -46.63750000     -33.74490000     -69.10380000
H      -46.82330000     -33.63010000     -68.03630000
H      -46.02030000     -32.86110000     -69.49690000
C      -45.81840000     -34.98720000     -69.41350000
C      -46.18250000     -36.25100000     -69.05320000
C      -44.64990000     -35.01420000     -70.27220000
H      -46.96920000     -36.60080000     -68.32320000
C      -44.40360000     -36.35630000     -70.61740000
C      -43.97300000     -34.08410000     -71.14810000
C      -43.21900000     -34.66230000     -72.11760000
S      -45.29430000     -37.54050000     -69.73310000
S      -43.26730000     -36.46590000     -72.01280000
H      -42.57520000     -34.10890000     -72.80090000
