40
Properties=species:S:1:pos:R:3 #=T CELL(abcABC):=T 1.889726e+02=T 90.00000=T Traj:=T positionsangstrom=T Step:=T 0=T Bead:=T pbc="F F F"
C      -46.65170000     -34.31880000     -69.43900000
C      -45.36910000     -34.84590000     -69.18220000
C      -44.35420000     -33.90690000     -68.95470000
C      -44.54080000     -32.53550000     -69.14670000
C      -45.81010000     -32.08300000     -69.38290000
C      -46.93290000     -32.98110000     -69.41260000
H      -47.47840000     -34.99250000     -69.71670000
H      -43.33410000     -34.29880000     -68.72160000
H      -45.97730000     -31.00000000     -69.41670000
H      -47.96500000     -32.67050000     -69.72880000
C      -43.39010000     -31.57560000     -68.94200000
H      -42.66750000     -32.02940000     -68.37000000
H      -43.67850000     -30.64760000     -68.53580000
C      -44.99770000     -36.34030000     -69.20060000
H      -44.00020000     -36.62060000     -68.84520000
H      -45.77950000     -36.85130000     -68.61110000
S      -42.57030000     -30.90900000     -70.55090000
S      -45.34250000     -37.09060000     -70.82290000
C      -42.24820000     -32.50700000     -71.49260000
H      -41.19020000     -32.48700000     -71.87520000
H      -42.32450000     -33.33840000     -70.79130000
C      -44.22030000     -36.13450000     -72.00770000
H      -43.40330000     -36.76360000     -72.24620000
H      -43.80390000     -35.32200000     -71.44340000
C      -44.97190000     -35.69530000     -73.21160000
H      -44.23930000     -35.37940000     -73.98930000
H      -45.60860000     -36.50740000     -73.59410000
C      -43.10130000     -32.64200000     -72.77950000
H      -42.93440000     -33.54320000     -73.33030000
H      -42.79380000     -31.84250000     -73.43970000
C      -44.61540000     -32.28140000     -72.72800000
C      -44.99310000     -30.97870000     -72.60950000
C      -45.75830000     -33.14060000     -72.82840000
H      -44.34050000     -30.12210000     -72.58950000
C      -46.94730000     -32.42080000     -72.66040000
C      -45.96130000     -34.59600000     -72.90370000
C      -47.32760000     -34.85180000     -72.74310000
S      -46.71150000     -30.67020000     -72.71970000
S      -48.36580000     -33.45260000     -72.67530000
H      -47.74030000     -35.79290000     -72.85560000
