40
Properties=species:S:1:pos:R:3 #=T CELL(abcABC):=T 1.889726e+02=T 90.00000=T Traj:=T positionsangstrom=T Step:=T 0=T Bead:=T pbc="F F F"
C      -46.38620000     -34.77440000     -69.23180000
C      -45.05230000     -35.16170000     -69.39810000
C      -44.02860000     -34.17190000     -69.36680000
C      -44.35650000     -32.81030000     -69.17200000
C      -45.71740000     -32.47740000     -68.97950000
C      -46.68580000     -33.45930000     -69.00370000
H      -47.20060000     -35.34630000     -69.36620000
H      -43.01240000     -34.50580000     -69.36820000
H      -45.88160000     -31.41650000     -68.82140000
H      -47.70620000     -33.17580000     -69.03830000
C      -43.26760000     -31.79600000     -69.04280000
H      -42.46830000     -32.23800000     -68.50470000
H      -43.63720000     -30.95980000     -68.51180000
C      -44.62790000     -36.57070000     -69.75790000
H      -43.52600000     -36.65750000     -69.58440000
H      -45.01530000     -37.29310000     -69.05260000
S      -42.35290000     -31.04100000     -70.51940000
S      -45.05390000     -37.07090000     -71.48830000
C      -42.54170000     -32.31700000     -71.83080000
H      -41.56880000     -32.38510000     -72.22450000
H      -42.88340000     -33.20010000     -71.28470000
C      -44.08030000     -35.80510000     -72.39860000
H      -43.16370000     -36.21160000     -72.75730000
H      -43.67440000     -35.08360000     -71.66220000
C      -44.97640000     -35.28330000     -73.47720000
H      -44.42750000     -34.66640000     -74.23790000
H      -45.35200000     -36.20910000     -74.01390000
C      -43.44160000     -32.09580000     -73.10560000
H      -43.41830000     -32.95100000     -73.81050000
H      -43.04970000     -31.18860000     -73.57120000
C      -44.91200000     -31.87850000     -72.78360000
C      -45.35310000     -30.69710000     -72.25380000
C      -45.99300000     -32.93610000     -72.72900000
H      -44.71380000     -29.94800000     -71.85320000
C      -47.18160000     -32.36460000     -72.28170000
C      -46.09280000     -34.39160000     -72.95330000
C      -47.39670000     -34.81200000     -72.81900000
S      -47.12060000     -30.58520000     -71.95370000
S      -48.52400000     -33.46960000     -72.37280000
H      -47.79950000     -35.75010000     -72.82840000
