40
Properties=species:S:1:pos:R:3 #=T CELL(abcABC):=T 1.889726e+02=T 90.00000=T Traj:=T positionsangstrom=T Step:=T 0=T Bead:=T pbc="F F F"
C      -44.87060000     -37.06960000     -69.91020000
C      -44.95710000     -35.87760000     -69.16340000
C      -43.90460000     -34.96410000     -69.24180000
C      -42.73330000     -35.21910000     -70.05950000
C      -42.71500000     -36.33610000     -70.90590000
C      -43.76400000     -37.26520000     -70.79550000
H      -45.61650000     -37.88630000     -69.80730000
H      -43.82210000     -34.04610000     -68.66750000
H      -41.99840000     -36.34590000     -71.70020000
H      -43.72610000     -38.17140000     -71.40420000
C      -41.58270000     -34.26700000     -69.94400000
H      -40.70690000     -34.91330000     -69.80960000
H      -41.82490000     -33.41940000     -69.27540000
C      -46.25480000     -35.65730000     -68.43060000
H      -47.14540000     -35.99040000     -69.05460000
H      -46.31470000     -36.22180000     -67.44790000
S      -41.47030000     -33.41600000     -71.62270000
S      -46.60240000     -33.93040000     -67.92110000
C      -43.20900000     -32.72290000     -71.84500000
H      -43.41310000     -31.99940000     -71.02270000
H      -42.97300000     -32.07160000     -72.64520000
C      -46.97350000     -33.22600000     -69.57240000
H      -48.09280000     -33.20830000     -69.52350000
H      -46.80050000     -33.98880000     -70.38810000
C      -46.32420000     -31.89380000     -69.83850000
H      -46.50650000     -31.10290000     -69.09990000
H      -45.25260000     -32.04650000     -69.78480000
C      -44.39330000     -33.70500000     -72.13200000
H      -44.83770000     -34.01000000     -71.17520000
H      -44.02770000     -34.69020000     -72.42670000
C      -45.43950000     -32.95320000     -72.99150000
C      -45.52620000     -33.12450000     -74.35890000
C      -46.45770000     -31.98230000     -72.53640000
H      -44.91080000     -33.94750000     -74.87330000
C      -47.23350000     -31.48930000     -73.56090000
C      -46.76670000     -31.40840000     -71.22780000
C      -47.84880000     -30.54990000     -71.37950000
S      -46.78210000     -32.22690000     -75.10340000
S      -48.37680000     -30.23050000     -73.06300000
H      -48.34480000     -29.89770000     -70.67910000
