40
Properties=species:S:1:pos:R:3 #=T CELL(abcABC):=T 1.889726e+02=T 90.00000=T Traj:=T positionsangstrom=T Step:=T 0=T Bead:=T pbc="F F F"
C      -46.03850000     -34.39380000     -69.15810000
C      -44.87880000     -35.16690000     -69.34650000
C      -43.64600000     -34.55400000     -69.51610000
C      -43.46860000     -33.19440000     -69.36900000
C      -44.61560000     -32.36370000     -69.08740000
C      -45.88200000     -32.98430000     -69.00280000
H      -47.00700000     -34.72130000     -69.06190000
H      -42.77830000     -35.23320000     -69.75070000
H      -44.53370000     -31.27960000     -69.09050000
H      -46.76270000     -32.36970000     -68.94970000
C      -42.13340000     -32.54700000     -69.60430000
H      -41.26460000     -33.15540000     -69.76810000
H      -41.88180000     -32.08320000     -68.60220000
C      -44.98820000     -36.67820000     -69.61540000
H      -44.01550000     -37.26260000     -69.40440000
H      -45.80200000     -37.13930000     -68.94460000
S      -42.20130000     -31.21510000     -70.85150000
S      -45.52070000     -36.99790000     -71.43140000
C      -42.70590000     -32.18470000     -72.31320000
H      -41.76580000     -32.17040000     -72.93000000
H      -42.90550000     -33.24870000     -71.93760000
C      -44.38660000     -35.85390000     -72.38920000
H      -43.63650000     -36.50230000     -72.80830000
H      -43.91910000     -35.21210000     -71.65570000
C      -45.09330000     -34.99400000     -73.46320000
H      -44.37910000     -34.40730000     -73.98140000
H      -45.58960000     -35.63750000     -74.17260000
C      -43.76500000     -31.64000000     -73.17790000
H      -43.87920000     -32.16640000     -74.15230000
H      -43.63540000     -30.62130000     -73.41800000
C      -45.20460000     -31.69540000     -72.57450000
C      -45.81110000     -30.49340000     -72.16030000
C      -46.18030000     -32.76850000     -72.52460000
H      -45.29590000     -29.62870000     -72.03170000
C      -47.45890000     -32.36220000     -72.08680000
C      -46.24540000     -34.13810000     -72.94120000
C      -47.41040000     -34.76850000     -72.66320000
S      -47.50750000     -30.71990000     -71.62530000
S      -48.69660000     -33.63390000     -72.17790000
H      -47.58470000     -35.79860000     -72.85540000
