40
Properties=species:S:1:pos:R:3 #=T CELL(abcABC):=T 1.889726e+02=T 90.00000=T Traj:=T positionsangstrom=T Step:=T 0=T Bead:=T pbc="F F F"
C      -46.28640000     -34.74360000     -69.34390000
C      -44.93560000     -35.02520000     -69.51060000
C      -43.95800000     -34.00420000     -69.30190000
C      -44.36790000     -32.66690000     -69.13520000
C      -45.75320000     -32.42320000     -69.00010000
C      -46.69850000     -33.41830000     -69.14730000
H      -46.96200000     -35.48390000     -69.52440000
H      -42.89090000     -34.26170000     -69.27160000
H      -46.08830000     -31.38800000     -68.87650000
H      -47.79730000     -33.28010000     -69.17270000
C      -43.44080000     -31.49090000     -69.09700000
H      -42.58430000     -31.83880000     -68.43650000
H      -43.92240000     -30.60400000     -68.68120000
C      -44.43790000     -36.38600000     -69.89580000
H      -43.32650000     -36.32170000     -70.03070000
H      -44.55200000     -37.16670000     -69.12990000
S      -42.51980000     -30.92520000     -70.65130000
S      -45.23890000     -36.96290000     -71.51120000
C      -42.52280000     -32.36900000     -71.80600000
H      -41.56520000     -32.38600000     -72.35440000
H      -42.65530000     -33.26530000     -71.14640000
C      -44.17190000     -36.12300000     -72.77430000
H      -43.58980000     -36.91320000     -73.24680000
H      -43.39080000     -35.51190000     -72.29220000
C      -45.06140000     -35.28530000     -73.70680000
H      -44.34520000     -34.68320000     -74.29620000
H      -45.52060000     -36.00680000     -74.42060000
C      -43.43080000     -32.23460000     -73.05270000
H      -43.26360000     -33.14240000     -73.59810000
H      -42.92350000     -31.44510000     -73.54900000
C      -44.89250000     -31.99850000     -72.76390000
C      -45.26990000     -30.74150000     -72.23680000
C      -45.90990000     -32.97970000     -72.65860000
H      -44.83140000     -29.79260000     -72.41240000
C      -47.09290000     -32.45400000     -72.12300000
C      -46.09220000     -34.42630000     -72.98370000
C      -47.39660000     -34.87630000     -72.83190000
S      -46.96790000     -30.74340000     -71.57560000
S      -48.47770000     -33.59280000     -72.20290000
H      -47.86490000     -35.72550000     -73.21220000
