40
Properties=species:S:1:pos:R:3 #=T CELL(abcABC):=T 1.889726e+02=T 90.00000=T Traj:=T positionsangstrom=T Step:=T 0=T Bead:=T pbc="F F F"
C      -49.04150000     -33.15300000     -71.48890000
C      -47.79700000     -32.64870000     -71.13240000
C      -47.04610000     -33.44510000     -70.28980000
C      -47.45750000     -34.70220000     -69.86640000
C      -48.71770000     -35.17590000     -70.25340000
C      -49.48490000     -34.41990000     -71.11330000
H      -49.65930000     -32.78300000     -72.32480000
H      -46.11860000     -33.15880000     -69.81810000
H      -49.01890000     -36.22510000     -69.96010000
H      -50.47220000     -34.75170000     -71.49040000
C      -46.50720000     -35.51690000     -69.01800000
H      -47.07320000     -36.11430000     -68.25020000
H      -45.91860000     -34.79110000     -68.47140000
C      -47.18400000     -31.40790000     -71.76290000
H      -47.63760000     -30.43890000     -71.45980000
H      -46.14930000     -31.23040000     -71.41800000
S      -45.60920000     -36.80170000     -70.02550000
S      -47.07140000     -31.47070000     -73.59580000
C      -45.43220000     -35.99870000     -71.62200000
H      -45.69700000     -36.73100000     -72.39390000
H      -46.21380000     -35.29250000     -71.73310000
C      -46.10170000     -33.09250000     -74.01540000
H      -46.47330000     -33.41640000     -74.98430000
H      -46.47320000     -33.89220000     -73.28500000
C      -44.57950000     -32.95380000     -74.02710000
H      -44.09670000     -33.92830000     -74.34830000
H      -44.44570000     -32.21080000     -74.82530000
C      -44.00860000     -35.43010000     -71.95500000
H      -43.98600000     -35.24410000     -73.02460000
H      -43.35490000     -36.36250000     -71.96200000
C      -43.45690000     -34.33960000     -71.08610000
C      -42.88370000     -34.47350000     -69.83320000
C      -43.46580000     -32.97680000     -71.55030000
H      -42.63130000     -35.39050000     -69.35930000
C      -42.85950000     -32.06450000     -70.69400000
C      -43.92230000     -32.33170000     -72.83590000
C      -43.64750000     -30.99140000     -72.73770000
S      -42.24530000     -32.90070000     -69.25710000
S      -42.84860000     -30.40730000     -71.31950000
H      -43.89510000     -30.15510000     -73.37500000
