40
Properties=species:S:1:pos:R:3 #=T CELL(abcABC):=T 1.889726e+02=T 90.00000=T Traj:=T positionsangstrom=T Step:=T 0=T Bead:=T pbc="F F F"
C      -45.95610000     -34.57080000     -69.19400000
C      -44.81000000     -35.22630000     -69.63500000
C      -43.53550000     -34.54770000     -69.70610000
C      -43.51180000     -33.20010000     -69.33570000
C      -44.69360000     -32.49340000     -69.05940000
C      -45.82360000     -33.25100000     -68.81540000
H      -46.89940000     -35.08930000     -69.25570000
H      -42.63380000     -35.19310000     -69.89970000
H      -44.54820000     -31.41460000     -68.82400000
H      -46.67650000     -32.66350000     -68.48040000
C      -42.26150000     -32.38640000     -69.47430000
H      -41.39090000     -33.01440000     -69.17350000
H      -42.25260000     -31.49790000     -68.81510000
C      -44.81580000     -36.72170000     -69.91010000
H      -43.80030000     -37.14700000     -69.60360000
H      -45.54190000     -37.26850000     -69.34960000
S      -42.04120000     -31.46210000     -71.15890000
S      -45.29870000     -37.06060000     -71.65120000
C      -42.88920000     -32.58260000     -72.36580000
H      -42.05380000     -32.70220000     -73.10210000
H      -43.16910000     -33.42620000     -71.76630000
C      -44.54570000     -35.72510000     -72.78210000
H      -43.79500000     -36.19950000     -73.43620000
H      -44.00940000     -35.12010000     -72.01630000
C      -45.57170000     -34.95450000     -73.64240000
H      -45.02020000     -34.40480000     -74.38200000
H      -46.17100000     -35.66930000     -74.13690000
C      -43.92390000     -31.77970000     -73.14510000
H      -43.85870000     -32.34530000     -74.14060000
H      -43.47010000     -30.75810000     -73.29000000
C      -45.28610000     -31.66960000     -72.58230000
C      -45.66450000     -30.43170000     -72.08220000
C      -46.29420000     -32.69490000     -72.43080000
H      -44.99290000     -29.55220000     -71.84700000
C      -47.43030000     -32.18920000     -71.85920000
C      -46.53460000     -34.11820000     -72.81130000
C      -47.74050000     -34.63880000     -72.44600000
S      -47.31620000     -30.48190000     -71.52210000
S      -48.69930000     -33.39560000     -71.62940000
H      -48.10890000     -35.69420000     -72.57610000
