40
Properties=species:S:1:pos:R:3 #=T CELL(abcABC):=T 1.889726e+02=T 90.00000=T Traj:=T positionsangstrom=T Step:=T 0=T Bead:=T pbc="F F F"
C      -48.06040000     -30.81830000     -70.95400000
C      -47.17810000     -30.74380000     -72.04590000
C      -47.14860000     -31.70410000     -73.13260000
C      -47.89640000     -32.86720000     -73.03720000
C      -48.84120000     -32.96230000     -71.98560000
C      -48.82670000     -32.04640000     -70.88040000
H      -48.16980000     -30.09370000     -70.18070000
H      -46.47320000     -31.66260000     -73.96040000
H      -49.39330000     -33.91450000     -71.92010000
H      -49.47160000     -32.14220000     -69.98120000
C      -47.78350000     -34.02150000     -74.16640000
H      -47.17840000     -33.59300000     -74.99050000
H      -48.76210000     -34.46810000     -74.52340000
C      -46.30770000     -29.54490000     -72.33730000
H      -45.86410000     -29.59940000     -73.36780000
H      -46.95210000     -28.72640000     -72.10180000
S      -46.54980000     -35.23680000     -73.68970000
S      -44.87260000     -29.36370000     -71.16840000
C      -45.21800000     -34.00510000     -73.38510000
H      -45.23950000     -33.32070000     -74.28060000
H      -45.53430000     -33.37310000     -72.53650000
C      -44.60280000     -30.81990000     -70.11660000
H      -45.50510000     -31.32160000     -69.77080000
H      -43.97470000     -30.45620000     -69.32620000
C      -43.69140000     -31.91040000     -70.78530000
H      -44.03020000     -32.12310000     -71.77990000
H      -42.66660000     -31.40350000     -70.91120000
C      -43.83760000     -34.58740000     -73.25060000
H      -43.07110000     -33.68130000     -73.34370000
H      -43.59210000     -35.13840000     -74.16930000
C      -43.71750000     -35.21950000     -71.85010000
C      -43.64510000     -36.63290000     -71.71780000
C      -43.73440000     -34.54040000     -70.59900000
H      -43.56640000     -37.24460000     -72.62370000
C      -43.56840000     -35.46820000     -69.51600000
C      -43.67110000     -33.18400000     -70.00350000
C      -43.73960000     -33.15450000     -68.63530000
S      -43.71480000     -37.15520000     -70.00230000
S      -43.62060000     -34.77080000     -68.00180000
H      -43.91050000     -32.29140000     -68.07200000
