40
Properties=species:S:1:pos:R:3 #=T CELL(abcABC):=T 1.889726e+02=T 90.00000=T Traj:=T positionsangstrom=T Step:=T 0=T Bead:=T pbc="F F F"
C      -45.71380000     -35.04420000     -69.15920000
C      -44.46640000     -35.45330000     -69.67190000
C      -43.42950000     -34.55310000     -69.84850000
C      -43.54410000     -33.18590000     -69.47820000
C      -44.83550000     -32.69340000     -69.07810000
C      -45.86170000     -33.63880000     -68.92220000
H      -46.65910000     -35.58460000     -69.01640000
H      -42.48550000     -34.91360000     -70.16540000
H      -45.14180000     -31.76190000     -68.72410000
H      -46.82750000     -33.33400000     -68.52000000
C      -42.43270000     -32.17630000     -69.63830000
H      -41.46790000     -32.70090000     -69.69270000
H      -42.41910000     -31.49040000     -68.78130000
C      -44.21820000     -36.76920000     -70.38730000
H      -43.27020000     -36.81960000     -70.76480000
H      -44.36230000     -37.60040000     -69.66350000
S      -42.54660000     -31.10630000     -71.11180000
S      -45.57300000     -36.98530000     -71.69450000
C      -42.65060000     -32.31310000     -72.55450000
H      -41.79080000     -32.16920000     -73.21600000
H      -42.63630000     -33.32270000     -72.13660000
C      -44.91610000     -35.63170000     -72.82430000
H      -44.18980000     -36.02870000     -73.51640000
H      -44.39930000     -34.82150000     -72.25370000
C      -46.04920000     -35.05600000     -73.68810000
H      -45.54210000     -34.68290000     -74.57220000
H      -46.82860000     -35.66940000     -74.14140000
C      -43.94070000     -32.18160000     -73.50840000
H      -44.07790000     -33.14850000     -74.06790000
H      -43.79370000     -31.38450000     -74.30170000
C      -45.20700000     -31.89820000     -72.77860000
C      -45.39050000     -30.64220000     -72.25560000
C      -46.28260000     -32.78400000     -72.38060000
H      -44.68840000     -29.82250000     -72.29910000
C      -47.27650000     -32.14890000     -71.55690000
C      -46.76010000     -34.02600000     -72.78200000
C      -47.96340000     -34.48190000     -72.33590000
S      -46.70110000     -30.52360000     -71.13460000
S      -48.64280000     -33.17780000     -71.30180000
H      -48.54640000     -35.39520000     -72.40780000
