40
Properties=species:S:1:pos:R:3 #=T CELL(abcABC):=T 1.889726e+02=T 90.00000=T Traj:=T positionsangstrom=T Step:=T 0=T Bead:=T pbc="F F F"
C      -49.09100000     -33.17730000     -71.48160000
C      -47.82960000     -32.66180000     -71.11390000
C      -47.00550000     -33.45680000     -70.32870000
C      -47.45760000     -34.72030000     -69.86920000
C      -48.69320000     -35.21160000     -70.28020000
C      -49.56320000     -34.38710000     -71.00620000
H      -49.77640000     -32.69760000     -72.12780000
H      -45.98570000     -33.24090000     -70.27200000
H      -48.99510000     -36.24470000     -69.99710000
H      -50.61380000     -34.75480000     -71.17650000
C      -46.60180000     -35.57780000     -69.03350000
H      -47.26450000     -36.17790000     -68.36910000
H      -45.94610000     -34.99440000     -68.37530000
C      -47.35860000     -31.33080000     -71.71160000
H      -48.22630000     -30.62770000     -71.64250000
H      -46.51840000     -31.08610000     -71.10320000
S      -45.54680000     -36.72720000     -69.95200000
S      -46.93090000     -31.48370000     -73.55700000
C      -45.36090000     -36.10340000     -71.68860000
H      -45.55480000     -37.01390000     -72.29030000
H      -46.02440000     -35.31070000     -71.89830000
C      -46.04900000     -33.12330000     -73.69970000
H      -46.51050000     -33.82820000     -74.37560000
H      -46.09630000     -33.46570000     -72.67140000
C      -44.52350000     -32.94720000     -74.07100000
H      -44.07610000     -33.88770000     -74.46770000
H      -44.32570000     -32.30480000     -74.90540000
C      -43.88310000     -35.66990000     -71.90750000
H      -43.74220000     -35.44080000     -72.96630000
H      -43.19660000     -36.42340000     -71.59380000
C      -43.56650000     -34.32800000     -71.17950000
C      -42.99970000     -34.34850000     -69.89320000
C      -43.43670000     -32.98580000     -71.75620000
H      -42.72660000     -35.26700000     -69.33930000
C      -42.93290000     -32.09540000     -70.80930000
C      -43.83250000     -32.29020000     -72.92350000
C      -43.53000000     -30.95180000     -72.88820000
S      -42.47970000     -32.82810000     -69.30320000
S      -42.77260000     -30.42290000     -71.28950000
H      -43.70170000     -30.20420000     -73.69030000
