40
Properties=species:S:1:pos:R:3 #=T CELL(abcABC):=T 1.889726e+02=T 90.00000=T Traj:=T positionsangstrom=T Step:=T 0=T Bead:=T pbc="F F F"
C      -45.70510000     -34.91900000     -69.16660000
C      -44.55520000     -35.33820000     -69.90730000
C      -43.47790000     -34.42220000     -70.07880000
C      -43.56810000     -33.10370000     -69.62330000
C      -44.74930000     -32.71550000     -68.92650000
C      -45.78680000     -33.63590000     -68.69290000
H      -46.59040000     -35.60660000     -69.11270000
H      -42.54320000     -34.73130000     -70.58740000
H      -44.70870000     -31.75050000     -68.39450000
H      -46.65120000     -33.33610000     -68.12370000
C      -42.37120000     -32.18580000     -69.74740000
H      -41.39120000     -32.71760000     -69.55890000
H      -42.48200000     -31.45180000     -68.93860000
C      -44.43810000     -36.73280000     -70.40830000
H      -43.42940000     -36.91870000     -70.72380000
H      -44.81480000     -37.40340000     -69.70980000
S      -42.29300000     -31.20760000     -71.30730000
S      -45.50750000     -37.23830000     -71.89680000
C      -42.79730000     -32.48260000     -72.55860000
H      -41.91010000     -32.66580000     -73.18810000
H      -43.07420000     -33.35240000     -71.96340000
C      -44.90610000     -35.96090000     -73.08440000
H      -44.63930000     -36.63220000     -73.91990000
H      -44.07020000     -35.46320000     -72.67510000
C      -45.99610000     -35.02320000     -73.63070000
H      -45.58680000     -34.25510000     -74.30230000
H      -46.75880000     -35.58410000     -73.99280000
C      -43.99960000     -32.05370000     -73.46360000
H      -44.24660000     -32.76930000     -74.27570000
H      -43.68090000     -31.08280000     -73.90890000
C      -45.25420000     -31.79010000     -72.65760000
C      -45.50260000     -30.52080000     -72.15920000
C      -46.36450000     -32.67100000     -72.30640000
H      -44.79040000     -29.71030000     -72.33450000
C      -47.27410000     -32.08430000     -71.42610000
C      -46.68090000     -34.05900000     -72.61260000
C      -47.78230000     -34.46720000     -72.01430000
S      -46.99760000     -30.39290000     -71.16360000
S      -48.54930000     -33.13880000     -71.03030000
H      -48.22690000     -35.44040000     -72.16300000
