40
Properties=species:S:1:pos:R:3 #=T CELL(abcABC):=T 1.889726e+02=T 90.00000=T Traj:=T positionsangstrom=T Step:=T 0=T Bead:=T pbc="F F F"
C      -46.00740000     -34.47460000     -69.25590000
C      -44.86790000     -35.24690000     -69.46780000
C      -43.60020000     -34.59600000     -69.54760000
C      -43.52160000     -33.15500000     -69.38680000
C      -44.69770000     -32.40340000     -69.10770000
C      -45.92990000     -33.08070000     -68.95730000
H      -46.98060000     -34.95490000     -69.12820000
H      -42.65690000     -35.07420000     -69.75610000
H      -44.66290000     -31.33500000     -69.11430000
H      -46.81540000     -32.50470000     -68.62980000
C      -42.12930000     -32.53150000     -69.44330000
H      -41.30150000     -33.28230000     -69.45680000
H      -41.86300000     -31.86440000     -68.64760000
C      -44.83220000     -36.72060000     -69.81050000
H      -43.77760000     -37.03790000     -69.88800000
H      -45.48390000     -37.43030000     -69.20960000
S      -41.99120000     -31.47320000     -71.01530000
S      -45.51580000     -37.00270000     -71.51090000
C      -42.83120000     -32.49750000     -72.32520000
H      -42.17450000     -32.84390000     -73.16420000
H      -43.28810000     -33.41470000     -71.90490000
C      -44.44960000     -35.86030000     -72.53110000
H      -43.75740000     -36.40060000     -73.18910000
H      -43.81730000     -35.32310000     -71.83140000
C      -45.21230000     -34.95850000     -73.50370000
H      -44.46530000     -34.41240000     -74.13520000
H      -45.62230000     -35.63150000     -74.24800000
C      -43.92450000     -31.71120000     -73.19310000
H      -44.01080000     -32.20940000     -74.13420000
H      -43.64680000     -30.71020000     -73.43980000
C      -45.36110000     -31.61580000     -72.65170000
C      -45.81510000     -30.37680000     -72.22470000
C      -46.27600000     -32.62820000     -72.57440000
H      -45.20810000     -29.42530000     -72.26160000
C      -47.44870000     -32.23270000     -71.91180000
C      -46.34090000     -34.08500000     -72.95210000
C      -47.53860000     -34.58200000     -72.57940000
S      -47.40860000     -30.55040000     -71.50230000
S      -48.66350000     -33.52280000     -71.85250000
H      -47.75210000     -35.63360000     -72.76660000
