40
Properties=species:S:1:pos:R:3 #=T CELL(abcABC):=T 1.889726e+02=T 90.00000=T Traj:=T positionsangstrom=T Step:=T 0=T Bead:=T pbc="F F F"
C      -49.18830000     -33.18250000     -71.51090000
C      -47.95200000     -32.71390000     -71.16150000
C      -47.13660000     -33.43850000     -70.31780000
C      -47.50240000     -34.75230000     -69.88840000
C      -48.85900000     -35.14560000     -70.11590000
C      -49.67850000     -34.33120000     -70.92540000
H      -49.79890000     -32.52820000     -72.10850000
H      -46.28120000     -32.99950000     -69.82130000
H      -49.36610000     -35.94560000     -69.67460000
H      -50.60630000     -34.73600000     -71.24010000
C      -46.50910000     -35.50340000     -69.05020000
H      -46.90790000     -35.93220000     -68.14640000
H      -45.70290000     -34.77660000     -68.78940000
C      -47.38430000     -31.36700000     -71.61040000
H      -48.16260000     -30.59960000     -71.64330000
H      -46.46320000     -31.01250000     -71.07530000
S      -45.53540000     -36.82600000     -69.95780000
S      -46.93880000     -31.49050000     -73.49090000
C      -45.13000000     -36.12760000     -71.62710000
H      -45.34320000     -36.97960000     -72.29080000
H      -45.86870000     -35.29030000     -71.85540000
C      -46.03580000     -33.04200000     -73.65020000
H      -46.53930000     -33.76270000     -74.35250000
H      -45.95850000     -33.56730000     -72.69320000
C      -44.54000000     -32.79220000     -74.12150000
H      -44.25050000     -33.72320000     -74.53170000
H      -44.55280000     -32.01430000     -74.87290000
C      -43.72390000     -35.57620000     -72.00440000
H      -43.91320000     -35.32030000     -73.07250000
H      -42.90130000     -36.30330000     -71.87300000
C      -43.40000000     -34.35050000     -71.25940000
C      -43.13750000     -34.46310000     -69.87580000
C      -43.35980000     -32.96040000     -71.77450000
H      -43.26340000     -35.45150000     -69.29850000
C      -42.79430000     -32.10860000     -70.81800000
C      -43.64720000     -32.32030000     -73.01480000
C      -43.29110000     -31.00330000     -72.96790000
S      -42.73290000     -32.83130000     -69.21630000
S      -42.69060000     -30.43910000     -71.42050000
H      -43.37410000     -30.29740000     -73.81020000
