40
Properties=species:S:1:pos:R:3 #=T CELL(abcABC):=T 1.889726e+02=T 90.00000=T Traj:=T positionsangstrom=T Step:=T 0=T Bead:=T pbc="F F F"
C      -45.44150000     -34.82720000     -69.19350000
C      -44.41390000     -35.48440000     -69.94710000
C      -43.22480000     -34.75510000     -70.18510000
C      -43.09570000     -33.45590000     -69.72440000
C      -44.11540000     -32.81830000     -69.03620000
C      -45.27210000     -33.51640000     -68.68910000
H      -46.34860000     -35.38910000     -69.11720000
H      -42.32640000     -35.15980000     -70.73570000
H      -44.02920000     -31.75520000     -68.72470000
H      -46.07610000     -33.05610000     -68.04710000
C      -41.90480000     -32.58610000     -70.07330000
H      -41.14330000     -33.12420000     -70.65950000
H      -41.46970000     -32.08190000     -69.16980000
C      -44.69700000     -36.87460000     -70.44760000
H      -43.71080000     -37.29250000     -70.59230000
H      -45.19750000     -37.45900000     -69.64670000
S      -42.51470000     -31.15990000     -71.12650000
S      -45.48150000     -37.03390000     -72.09460000
C      -43.04970000     -32.14530000     -72.61790000
H      -42.23790000     -32.21850000     -73.30070000
H      -43.36220000     -33.05540000     -72.18380000
C      -44.77450000     -35.67010000     -73.00680000
H      -44.13870000     -35.95610000     -73.80790000
H      -44.23910000     -35.03010000     -72.25650000
C      -45.85720000     -34.81530000     -73.69320000
H      -45.31770000     -34.26040000     -74.51180000
H      -46.66060000     -35.29030000     -74.32240000
C      -44.26200000     -31.56990000     -73.40300000
H      -44.56380000     -32.20330000     -74.26060000
H      -44.01220000     -30.59870000     -73.77340000
C      -45.45820000     -31.53830000     -72.48260000
C      -45.89030000     -30.34480000     -71.89130000
C      -46.40140000     -32.63160000     -72.20520000
H      -45.34280000     -29.43060000     -71.99620000
C      -47.48670000     -32.18490000     -71.41940000
C      -46.60200000     -34.02740000     -72.67220000
C      -47.75990000     -34.56040000     -72.19000000
S      -47.28760000     -30.55230000     -70.84380000
S      -48.66660000     -33.42790000     -71.12720000
H      -48.13750000     -35.54810000     -72.40130000
