40
Properties=species:S:1:pos:R:3 #=T CELL(abcABC):=T 1.889726e+02=T 90.00000=T Traj:=T positionsangstrom=T Step:=T 0=T Bead:=T pbc="F F F"
C      -45.46760000     -35.00990000     -69.46810000
C      -44.25190000     -35.22030000     -70.14570000
C      -43.36770000     -34.17510000     -70.33190000
C      -43.60300000     -32.93870000     -69.70060000
C      -44.71170000     -32.77470000     -68.85450000
C      -45.70070000     -33.79910000     -68.78300000
H      -46.12660000     -35.83800000     -69.27750000
H      -42.47530000     -34.41140000     -70.88290000
H      -44.82380000     -31.84780000     -68.23890000
H      -46.63010000     -33.58500000     -68.20050000
C      -42.55180000     -31.86180000     -69.74990000
H      -41.60800000     -32.20860000     -69.31630000
H      -42.92760000     -31.01860000     -69.14270000
C      -44.00920000     -36.61180000     -70.76260000
H      -43.03640000     -36.86870000     -71.12910000
H      -44.23990000     -37.30140000     -70.00870000
S      -42.26690000     -31.16870000     -71.41290000
S      -45.14620000     -36.87270000     -72.21260000
C      -42.95190000     -32.13720000     -72.85210000
H      -42.27540000     -31.99490000     -73.73700000
H      -42.74540000     -33.21530000     -72.70640000
C      -44.72000000     -35.46850000     -73.23620000
H      -43.92460000     -35.72170000     -73.96620000
H      -44.16630000     -34.77170000     -72.60290000
C      -45.89990000     -34.75330000     -73.90140000
H      -45.53080000     -34.00700000     -74.54390000
H      -46.57010000     -35.44560000     -74.41160000
C      -44.34070000     -31.66360000     -73.24220000
H      -44.66130000     -32.05720000     -74.23990000
H      -44.31590000     -30.60550000     -73.49870000
C      -45.49360000     -31.78310000     -72.28070000
C      -45.68710000     -30.78830000     -71.33700000
C      -46.51930000     -32.77680000     -72.19150000
H      -45.07690000     -29.90770000     -71.21860000
C      -47.40670000     -32.44900000     -71.15210000
C      -46.80710000     -34.02070000     -72.79990000
C      -47.94840000     -34.60200000     -72.41420000
S      -47.16200000     -30.94080000     -70.38090000
S      -48.69120000     -33.63540000     -71.05390000
H      -48.30880000     -35.58560000     -72.69410000
