40
Properties=species:S:1:pos:R:3 #=T CELL(abcABC):=T 1.889726e+02=T 90.00000=T Traj:=T positionsangstrom=T Step:=T 0=T Bead:=T pbc="F F F"
C      -45.85060000     -35.51000000     -69.98000000
C      -44.51640000     -35.74850000     -70.37280000
C      -43.54170000     -34.82820000     -70.06550000
C      -43.77010000     -33.64300000     -69.34010000
C      -45.11010000     -33.40220000     -68.90280000
C      -46.14540000     -34.33530000     -69.19940000
H      -46.63590000     -36.19220000     -70.40470000
H      -42.55180000     -35.02150000     -70.46120000
H      -45.39210000     -32.55660000     -68.14100000
H      -47.17720000     -34.05530000     -68.93770000
C      -42.74350000     -32.65840000     -68.90920000
H      -41.65920000     -33.10740000     -68.91710000
H      -42.93000000     -32.37020000     -67.84080000
C      -44.32310000     -36.90720000     -71.28230000
H      -43.35190000     -37.29820000     -71.47530000
H      -44.91580000     -37.76090000     -70.92050000
S      -42.76820000     -31.14070000     -70.08060000
S      -44.91150000     -36.75150000     -73.10050000
C      -42.71570000     -32.09770000     -71.73370000
H      -41.74100000     -32.11200000     -72.17970000
H      -42.99960000     -33.14240000     -71.51100000
C      -44.35790000     -35.00750000     -73.50940000
H      -43.50710000     -35.02670000     -74.23330000
H      -44.00390000     -34.66800000     -72.51800000
C      -45.42720000     -34.05870000     -74.05660000
H      -45.03890000     -33.02310000     -74.36630000
H      -45.84590000     -34.57410000     -74.96330000
C      -43.82970000     -31.45520000     -72.64930000
H      -43.61630000     -31.93250000     -73.65090000
H      -43.62520000     -30.43730000     -72.92790000
C      -45.19020000     -31.50370000     -72.02450000
C      -45.57780000     -30.42050000     -71.22870000
C      -46.18930000     -32.52390000     -72.16940000
H      -45.00390000     -29.59060000     -71.04290000
C      -47.37750000     -32.21330000     -71.42380000
C      -46.42810000     -33.65570000     -73.05630000
C      -47.63760000     -34.27380000     -72.77480000
S      -47.26500000     -30.66410000     -70.59850000
S      -48.63060000     -33.48360000     -71.54180000
H      -48.03860000     -35.10460000     -73.27430000
