40
Properties=species:S:1:pos:R:3 #=T CELL(abcABC):=T 1.889726e+02=T 90.00000=T Traj:=T positionsangstrom=T Step:=T 0=T Bead:=T pbc="F F F"
C      -45.59140000     -35.53870000     -69.58710000
C      -44.36070000     -35.75020000     -70.23380000
C      -43.41320000     -34.70720000     -70.30080000
C      -43.66060000     -33.56080000     -69.54830000
C      -44.83490000     -33.31860000     -68.89790000
C      -45.82830000     -34.35980000     -68.91660000
H      -46.41990000     -36.22280000     -69.49430000
H      -42.41210000     -34.84290000     -70.76990000
H      -44.94810000     -32.38390000     -68.39590000
H      -46.77160000     -34.20520000     -68.33100000
C      -42.49570000     -32.54560000     -69.44240000
H      -41.46560000     -33.07190000     -69.74510000
H      -42.31870000     -32.11650000     -68.39780000
C      -44.12970000     -37.05170000     -70.98090000
H      -43.15160000     -37.41320000     -71.12390000
H      -44.75540000     -37.87390000     -70.66060000
S      -42.73170000     -31.03470000     -70.51040000
S      -44.94440000     -36.81410000     -72.65160000
C      -43.05700000     -31.74710000     -72.17740000
H      -42.15940000     -31.75980000     -72.81040000
H      -43.15450000     -32.79330000     -72.05050000
C      -44.23470000     -35.23970000     -73.24400000
H      -43.48790000     -35.50740000     -73.93440000
H      -43.77860000     -34.59560000     -72.47690000
C      -45.23730000     -34.26780000     -73.84290000
H      -44.80170000     -33.34580000     -74.28950000
H      -45.79860000     -34.84200000     -74.71730000
C      -44.23340000     -31.08280000     -72.83660000
H      -44.24210000     -31.56120000     -73.82980000
H      -44.06230000     -30.00630000     -73.11200000
C      -45.54770000     -31.28010000     -72.14800000
C      -46.13530000     -30.20850000     -71.55150000
C      -46.28580000     -32.50270000     -72.11070000
H      -45.59970000     -29.22670000     -71.43630000
C      -47.42920000     -32.34810000     -71.37760000
C      -46.26940000     -33.78480000     -72.79810000
C      -47.40610000     -34.47720000     -72.51830000
S      -47.60700000     -30.72270000     -70.73060000
S      -48.53910000     -33.66810000     -71.46970000
H      -47.78450000     -35.47420000     -72.86180000
