40
Properties=species:S:1:pos:R:3 #=T CELL(abcABC):=T 1.889726e+02=T 90.00000=T Traj:=T positionsangstrom=T Step:=T 0=T Bead:=T pbc="F F F"
C      -46.89330000     -30.72910000     -71.08350000
C      -46.42100000     -30.88830000     -72.40270000
C      -46.77190000     -32.07670000     -73.06150000
C      -47.49910000     -33.09230000     -72.51740000
C      -47.98320000     -32.87320000     -71.19730000
C      -47.65630000     -31.72980000     -70.50540000
H      -46.67640000     -29.86320000     -70.47340000
H      -46.58710000     -32.27380000     -74.10370000
H      -48.56230000     -33.70460000     -70.71300000
H      -48.21870000     -31.54780000     -69.54360000
C      -47.80400000     -34.35010000     -73.23090000
H      -48.10010000     -33.99100000     -74.28410000
H      -48.76560000     -34.71390000     -72.87410000
C      -45.80260000     -29.67000000     -73.08840000
H      -45.93950000     -29.69040000     -74.18860000
H      -46.31660000     -28.86370000     -72.63070000
S      -46.57530000     -35.78250000     -73.15410000
S      -43.85150000     -29.65750000     -72.96760000
C      -44.89210000     -34.94900000     -73.67890000
H      -44.81050000     -35.15580000     -74.73620000
H      -45.03280000     -33.85180000     -73.50970000
C      -43.62450000     -30.70200000     -71.42700000
H      -44.48210000     -30.33050000     -70.84450000
H      -42.71100000     -30.28680000     -70.91950000
C      -43.58620000     -32.22970000     -71.65510000
H      -44.27190000     -32.51000000     -72.43720000
H      -42.53010000     -32.56980000     -71.86960000
C      -43.91240000     -35.65770000     -72.82680000
H      -42.84490000     -35.33720000     -72.97990000
H      -43.82130000     -36.73390000     -73.13190000
C      -44.06690000     -35.60500000     -71.28670000
C      -44.38430000     -36.77490000     -70.57950000
C      -44.21250000     -34.45400000     -70.38990000
H      -44.36610000     -37.74790000     -71.02910000
C      -44.55360000     -34.90650000     -69.12310000
C      -44.02100000     -33.02630000     -70.42990000
C      -44.40130000     -32.42460000     -69.26190000
S      -44.74060000     -36.58200000     -68.91630000
S      -44.86610000     -33.60080000     -68.02530000
H      -44.27120000     -31.38670000     -68.95390000
