40
Properties=species:S:1:pos:R:3 #=T CELL(abcABC):=T 1.889726e+02=T 90.00000=T Traj:=T positionsangstrom=T Step:=T 0=T Bead:=T pbc="F F F"
C      -47.07400000     -30.75600000     -71.12260000
C      -46.62500000     -30.91360000     -72.46100000
C      -46.82030000     -32.12130000     -73.06730000
C      -47.41910000     -33.22000000     -72.44980000
C      -47.76650000     -33.01970000     -71.06850000
C      -47.65980000     -31.80670000     -70.41800000
H      -47.06890000     -29.80050000     -70.61650000
H      -46.49990000     -32.18610000     -74.10570000
H      -48.30380000     -33.88200000     -70.52900000
H      -47.77170000     -31.67900000     -69.36390000
C      -47.75550000     -34.42170000     -73.23280000
H      -47.95500000     -34.31280000     -74.26110000
H      -48.64010000     -34.88320000     -72.74870000
C      -45.91810000     -29.78610000     -73.24270000
H      -46.06690000     -29.94970000     -74.31330000
H      -46.27820000     -28.77130000     -72.93700000
S      -46.51610000     -35.79100000     -73.02800000
S      -44.09150000     -29.88820000     -73.12250000
C      -44.92480000     -34.82000000     -73.45160000
H      -44.77860000     -34.86620000     -74.55530000
H      -45.10010000     -33.82340000     -73.20480000
C      -43.53840000     -30.65700000     -71.50290000
H      -44.20180000     -30.30220000     -70.69480000
H      -42.57370000     -30.26470000     -71.30140000
C      -43.43240000     -32.17090000     -71.60520000
H      -44.01580000     -32.50520000     -72.49170000
H      -42.43530000     -32.40430000     -71.88550000
C      -43.67150000     -35.27250000     -72.75580000
H      -42.89700000     -34.51150000     -72.87480000
H      -43.33270000     -36.14120000     -73.25960000
C      -43.91660000     -35.47730000     -71.29690000
C      -44.29640000     -36.67960000     -70.69550000
C      -44.14750000     -34.42600000     -70.36890000
H      -44.19930000     -37.63390000     -71.17790000
C      -44.66840000     -34.86620000     -69.15090000
C      -43.90040000     -32.95900000     -70.37950000
C      -44.22280000     -32.45810000     -69.16310000
S      -44.91730000     -36.54500000     -69.01820000
S      -44.84630000     -33.55340000     -68.01330000
H      -44.12660000     -31.38110000     -68.84540000
