40
Properties=species:S:1:pos:R:3 #=T CELL(abcABC):=T 1.889726e+02=T 90.00000=T Traj:=T positionsangstrom=T Step:=T 0=T Bead:=T pbc="F F F"
C      -45.41660000     -35.24720000     -69.34620000
C      -44.26990000     -35.59230000     -70.07100000
C      -43.21900000     -34.60500000     -70.17000000
C      -43.31070000     -33.28510000     -69.60640000
C      -44.54810000     -33.02360000     -68.92080000
C      -45.57020000     -33.95280000     -68.84020000
H      -46.22540000     -35.91830000     -69.29690000
H      -42.37670000     -34.93520000     -70.74140000
H      -44.84750000     -32.08610000     -68.44470000
H      -46.43330000     -33.60390000     -68.22750000
C      -42.27230000     -32.20830000     -69.56840000
H      -41.21580000     -32.56180000     -69.70490000
H      -42.24760000     -31.86740000     -68.53420000
C      -44.09740000     -36.87710000     -70.80070000
H      -43.05690000     -37.17820000     -71.10930000
H      -44.31460000     -37.65730000     -70.12260000
S      -42.62490000     -30.89360000     -70.90820000
S      -45.10580000     -36.87610000     -72.31820000
C      -43.03160000     -31.91600000     -72.34410000
H      -42.18530000     -31.86340000     -72.95540000
H      -43.13940000     -32.92190000     -72.01000000
C      -44.44620000     -35.29110000     -73.12660000
H      -43.57420000     -35.68370000     -73.74190000
H      -43.95690000     -34.69800000     -72.37060000
C      -45.54940000     -34.59940000     -73.85380000
H      -45.21550000     -33.77090000     -74.46870000
H      -45.99160000     -35.34720000     -74.56920000
C      -44.25760000     -31.30530000     -73.05530000
H      -44.24820000     -31.72220000     -74.11380000
H      -43.96230000     -30.27270000     -73.19950000
C      -45.53340000     -31.49460000     -72.37730000
C      -46.02940000     -30.45390000     -71.60310000
C      -46.49840000     -32.65740000     -72.34530000
H      -45.65360000     -29.46370000     -71.39980000
C      -47.54150000     -32.41930000     -71.47300000
C      -46.56960000     -34.03130000     -72.77830000
C      -47.78290000     -34.67950000     -72.47650000
S      -47.51570000     -30.83150000     -70.69330000
S      -48.66620000     -33.68740000     -71.37130000
H      -48.04280000     -35.70510000     -72.78600000
