40
Properties=species:S:1:pos:R:3 #=T CELL(abcABC):=T 1.889726e+02=T 90.00000=T Traj:=T positionsangstrom=T Step:=T 0=T Bead:=T pbc="F F F"
C      -49.15180000     -33.14370000     -71.48450000
C      -47.87780000     -32.59810000     -71.16140000
C      -47.00440000     -33.40220000     -70.39620000
C      -47.40000000     -34.68990000     -69.84960000
C      -48.73340000     -35.04940000     -69.94300000
C      -49.53550000     -34.28940000     -70.83150000
H      -49.81730000     -32.54400000     -72.14500000
H      -45.93750000     -33.17440000     -70.28760000
H      -49.07440000     -36.08610000     -69.66580000
H      -50.53390000     -34.70260000     -71.02970000
C      -46.41890000     -35.58060000     -69.08870000
H      -46.93010000     -36.03130000     -68.18650000
H      -45.61170000     -34.98620000     -68.73470000
C      -47.27090000     -31.23560000     -71.59660000
H      -48.07150000     -30.52500000     -71.38120000
H      -46.42420000     -31.09620000     -70.95340000
S      -45.72800000     -36.98170000     -70.09970000
S      -46.85060000     -31.23930000     -73.50220000
C      -45.47970000     -36.18660000     -71.73320000
H      -45.47760000     -37.08840000     -72.42500000
H      -46.30690000     -35.56070000     -71.99700000
C      -46.06400000     -32.91340000     -73.85740000
H      -46.63090000     -33.38380000     -74.66170000
H      -46.16510000     -33.54630000     -72.92050000
C      -44.48840000     -32.82260000     -74.12240000
H      -44.06160000     -33.75660000     -74.32340000
H      -44.30500000     -32.28010000     -75.03060000
C      -44.08780000     -35.56240000     -71.96170000
H      -43.93110000     -35.36590000     -73.04740000
H      -43.37640000     -36.37200000     -71.75020000
C      -43.69120000     -34.36950000     -71.15740000
C      -43.15480000     -34.44510000     -69.85740000
C      -43.50900000     -33.02430000     -71.68320000
H      -43.00000000     -35.36000000     -69.30420000
C      -42.89960000     -32.16160000     -70.75290000
C      -43.83890000     -32.27600000     -72.90900000
C      -43.36770000     -31.04090000     -72.89410000
S      -42.55270000     -32.90020000     -69.24170000
S      -42.50400000     -30.57770000     -71.38260000
H      -43.55840000     -30.43050000     -73.75640000
