40
Properties=species:S:1:pos:R:3 #=T CELL(abcABC):=T 1.889726e+02=T 90.00000=T Traj:=T positionsangstrom=T Step:=T 0=T Bead:=T pbc="F F F"
C      -45.75030000     -31.80520000     -75.78400000
C      -46.01340000     -31.88380000     -74.36700000
C      -46.31030000     -33.09490000     -73.73970000
C      -46.25530000     -34.32060000     -74.47840000
C      -45.87140000     -34.20760000     -75.81120000
C      -45.50300000     -33.01700000     -76.36690000
H      -45.49190000     -30.90150000     -76.31570000
H      -46.54340000     -32.97770000     -72.70020000
H      -45.64610000     -35.00660000     -76.49050000
H      -45.20830000     -33.09220000     -77.44680000
C      -46.70440000     -35.64160000     -73.85200000
H      -47.45530000     -36.26610000     -74.44610000
H      -47.08390000     -35.43780000     -72.85870000
C      -45.90480000     -30.50300000     -73.65040000
H      -44.88870000     -30.45790000     -73.20530000
H      -45.84750000     -29.78790000     -74.48880000
S      -45.20910000     -36.71360000     -73.48160000
S      -47.20030000     -30.09160000     -72.36180000
C      -44.90480000     -36.57040000     -71.70050000
H      -45.51220000     -37.28520000     -71.14410000
H      -43.86230000     -36.83820000     -71.50420000
C      -46.23860000     -30.35480000     -70.80770000
H      -46.69490000     -29.84930000     -69.96580000
H      -45.34870000     -29.79710000     -70.78210000
C      -46.05230000     -31.86740000     -70.41550000
H      -47.04810000     -32.19540000     -70.34010000
H      -45.42730000     -32.33660000     -71.18890000
C      -45.21660000     -35.15850000     -71.09930000
H      -46.30610000     -35.22420000     -71.08030000
H      -45.04870000     -34.29020000     -71.76670000
C      -44.65610000     -34.83220000     -69.74340000
C      -43.95520000     -35.77280000     -69.05500000
C      -44.82810000     -33.55310000     -68.96750000
H      -43.71870000     -36.85710000     -69.31810000
C      -44.05520000     -33.57330000     -67.81890000
C      -45.31060000     -32.22220000     -69.18050000
C      -45.00090000     -31.33500000     -68.17930000
S      -43.44360000     -35.15030000     -67.48510000
S      -44.03130000     -32.06440000     -66.88960000
H      -45.38490000     -30.35800000     -68.04520000
