40
Properties=species:S:1:pos:R:3 #=T CELL(abcABC):=T 1.889726e+02=T 90.00000=T Traj:=T positionsangstrom=T Step:=T 0=T Bead:=T pbc="F F F"
C      -46.02620000     -35.45270000     -70.03370000
C      -44.75500000     -35.66010000     -70.56150000
C      -43.67510000     -34.86550000     -70.04060000
C      -43.97400000     -33.74740000     -69.25030000
C      -45.21730000     -33.51090000     -68.78190000
C      -46.27900000     -34.39790000     -69.16770000
H      -46.78910000     -36.08450000     -70.36110000
H      -42.58740000     -35.01050000     -70.30180000
H      -45.39560000     -32.67130000     -68.16200000
H      -47.19260000     -34.45030000     -68.60760000
C      -42.90240000     -32.73620000     -68.81450000
H      -41.96910000     -33.31490000     -68.36960000
H      -43.30800000     -32.20910000     -67.90480000
C      -44.44480000     -36.83720000     -71.46180000
H      -43.38380000     -36.96580000     -71.30700000
H      -44.93350000     -37.74000000     -71.10580000
S      -42.41910000     -31.49280000     -69.96710000
S      -44.99210000     -36.62530000     -73.26510000
C      -42.83690000     -32.17760000     -71.68360000
H      -41.85380000     -32.31030000     -72.15130000
H      -43.19990000     -33.16700000     -71.56980000
C      -44.29720000     -34.94280000     -73.74200000
H      -43.53780000     -35.07480000     -74.55950000
H      -43.80460000     -34.50440000     -72.86910000
C      -45.34590000     -33.93970000     -74.20220000
H      -44.76430000     -33.02880000     -74.59830000
H      -45.98690000     -34.33140000     -75.10060000
C      -43.71820000     -31.38160000     -72.53060000
H      -43.73020000     -31.81070000     -73.51030000
H      -43.31230000     -30.32870000     -72.34660000
C      -45.14170000     -31.38970000     -71.94830000
C      -45.52600000     -30.48200000     -71.01110000
C      -46.19350000     -32.38260000     -72.20950000
H      -44.91070000     -29.65110000     -70.58830000
C      -47.28560000     -32.15570000     -71.44050000
C      -46.39120000     -33.56520000     -73.15310000
C      -47.64700000     -34.11690000     -72.91930000
S      -47.19970000     -30.72610000     -70.39390000
S      -48.60010000     -33.39350000     -71.61920000
H      -47.93940000     -35.00220000     -73.51370000
