40
Properties=species:S:1:pos:R:3 #=T CELL(abcABC):=T 1.889726e+02=T 90.00000=T Traj:=T positionsangstrom=T Step:=T 0=T Bead:=T pbc="F F F"
C      -47.43160000     -32.54580000     -70.25950000
C      -47.12930000     -32.05560000     -71.51970000
C      -47.17980000     -32.86430000     -72.61470000
C      -47.27850000     -34.22430000     -72.52800000
C      -47.40030000     -34.75910000     -71.21440000
C      -47.57530000     -33.92910000     -70.12930000
H      -47.45760000     -31.95600000     -69.30180000
H      -46.92980000     -32.49680000     -73.59940000
H      -47.51000000     -35.88810000     -70.96570000
H      -47.89440000     -34.32140000     -69.17760000
C      -47.09330000     -35.18010000     -73.69510000
H      -47.06980000     -34.63810000     -74.75240000
H      -47.88590000     -35.96330000     -73.77070000
C      -46.89560000     -30.57730000     -71.62610000
H      -47.72850000     -30.03740000     -72.00770000
H      -46.68300000     -30.31840000     -70.61250000
S      -45.52870000     -36.16920000     -73.69500000
S      -45.60690000     -30.07060000     -72.85430000
C      -44.26490000     -34.79980000     -73.81460000
H      -43.79870000     -35.03000000     -74.78600000
H      -44.79570000     -33.84220000     -73.85470000
C      -43.84960000     -30.07310000     -72.10710000
H      -43.84500000     -29.56650000     -71.14160000
H      -43.26080000     -29.46920000     -72.90400000
C      -43.20200000     -31.43130000     -71.81100000
H      -43.18920000     -32.08620000     -72.62890000
H      -42.11590000     -31.15300000     -71.59840000
C      -43.23530000     -34.82870000     -72.74490000
H      -42.55030000     -33.98850000     -72.81400000
H      -42.70070000     -35.80590000     -72.77080000
C      -43.78090000     -34.74890000     -71.33250000
C      -44.15290000     -35.88610000     -70.67900000
C      -44.11340000     -33.56950000     -70.55440000
H      -44.15570000     -36.90770000     -71.06140000
C      -44.57530000     -33.92250000     -69.23810000
C      -43.86160000     -32.14530000     -70.62670000
C      -44.18760000     -31.47190000     -69.49830000
S      -44.72800000     -35.64570000     -69.04180000
S      -44.79450000     -32.55520000     -68.19730000
H      -44.10780000     -30.45480000     -69.28740000
