40
Properties=species:S:1:pos:R:3 #=T CELL(abcABC):=T 1.889726e+02=T 90.00000=T Traj:=T positionsangstrom=T Step:=T 0=T Bead:=T pbc="F F F"
C      -47.37040000     -32.60360000     -70.30320000
C      -47.19670000     -32.06600000     -71.57730000
C      -47.03250000     -32.99020000     -72.61660000
C      -47.26370000     -34.34720000     -72.41620000
C      -47.68780000     -34.80510000     -71.20320000
C      -47.67440000     -33.90450000     -70.12120000
H      -47.41270000     -31.96640000     -69.46760000
H      -46.76180000     -32.60990000     -73.61000000
H      -48.03090000     -35.80040000     -71.07320000
H      -48.13590000     -34.16420000     -69.15160000
C      -47.05970000     -35.32470000     -73.56780000
H      -47.21280000     -34.78270000     -74.51650000
H      -47.77330000     -36.22670000     -73.51420000
C      -47.05020000     -30.58190000     -71.79910000
H      -48.08860000     -30.18940000     -71.84250000
H      -46.69640000     -30.05900000     -70.91640000
S      -45.35670000     -36.07980000     -73.61660000
S      -46.01840000     -30.01770000     -73.21320000
C      -44.29340000     -34.56470000     -73.59390000
H      -43.94830000     -34.30640000     -74.60340000
H      -44.89780000     -33.76390000     -73.24330000
C      -44.35160000     -30.00220000     -72.42700000
H      -44.55150000     -29.27440000     -71.57280000
H      -43.70560000     -29.48960000     -73.16830000
C      -43.68880000     -31.29980000     -72.00360000
H      -43.80940000     -31.94940000     -72.92490000
H      -42.61540000     -31.08240000     -71.93870000
C      -43.14810000     -34.87240000     -72.60760000
H      -42.30690000     -34.15270000     -72.82290000
H      -42.61370000     -35.82240000     -72.77870000
C      -43.64690000     -34.80560000     -71.24060000
C      -43.76660000     -35.94900000     -70.45720000
C      -44.01490000     -33.58960000     -70.54630000
H      -43.46710000     -36.89280000     -70.81370000
C      -44.33850000     -33.94540000     -69.25110000
C      -44.01530000     -32.10950000     -70.73800000
C      -44.26760000     -31.51910000     -69.49970000
S      -44.35980000     -35.63510000     -68.80320000
S      -44.59230000     -32.63970000     -68.15830000
H      -44.31400000     -30.37480000     -69.26790000
