40
Properties=species:S:1:pos:R:3 #=T CELL(abcABC):=T 1.889726e+02=T 90.00000=T Traj:=T positionsangstrom=T Step:=T 0=T Bead:=T pbc="F F F"
C      -48.96310000     -32.92840000     -71.46200000
C      -47.64570000     -32.53100000     -71.15020000
C      -46.82270000     -33.40760000     -70.35070000
C      -47.37960000     -34.58550000     -69.81550000
C      -48.67350000     -35.01570000     -70.17060000
C      -49.48670000     -34.13030000     -70.89940000
H      -49.65430000     -32.22610000     -72.00310000
H      -45.95080000     -33.00290000     -69.91640000
H      -49.07850000     -35.80010000     -69.48350000
H      -50.56600000     -34.44420000     -71.10200000
C      -46.52610000     -35.42940000     -68.94010000
H      -47.12800000     -35.89180000     -68.10030000
H      -45.69930000     -34.88290000     -68.52100000
C      -47.01760000     -31.24010000     -71.66590000
H      -47.70800000     -30.39180000     -71.40450000
H      -45.99700000     -30.97000000     -71.28570000
S      -45.95910000     -36.90630000     -70.07970000
S      -46.97670000     -31.23460000     -73.55110000
C      -45.40180000     -36.11980000     -71.65680000
H      -45.70680000     -36.87720000     -72.38410000
H      -46.01320000     -35.19780000     -71.79340000
C      -46.19210000     -32.86630000     -73.94100000
H      -46.61670000     -33.19250000     -74.90720000
H      -46.51190000     -33.56280000     -73.20800000
C      -44.54980000     -32.87810000     -74.15770000
H      -44.24470000     -33.97820000     -74.25840000
H      -44.21500000     -32.25240000     -75.02580000
C      -43.95420000     -35.70690000     -71.93400000
H      -43.87960000     -35.55750000     -73.02550000
H      -43.32950000     -36.57600000     -71.72060000
C      -43.49930000     -34.43290000     -71.26170000
C      -43.09080000     -34.56790000     -69.94770000
C      -43.44460000     -33.07290000     -71.68800000
H      -43.06000000     -35.44330000     -69.41380000
C      -42.90880000     -32.21850000     -70.70480000
C      -43.80630000     -32.31920000     -72.90550000
C      -43.38180000     -31.05710000     -72.86690000
S      -42.49770000     -33.12180000     -69.23540000
S      -42.67400000     -30.59600000     -71.28300000
H      -43.47880000     -30.33810000     -73.65820000
