40
Properties=species:S:1:pos:R:3 #=T CELL(abcABC):=T 1.889726e+02=T 90.00000=T Traj:=T positionsangstrom=T Step:=T 0=T Bead:=T pbc="F F F"
C      -48.84590000     -34.60190000     -72.66150000
C      -47.98270000     -35.23130000     -71.72620000
C      -47.70900000     -34.47870000     -70.55080000
C      -48.45890000     -33.38240000     -70.26810000
C      -49.43220000     -32.84610000     -71.13240000
C      -49.66980000     -33.49930000     -72.36360000
H      -49.04310000     -35.07390000     -73.66330000
H      -47.07750000     -34.94530000     -69.81690000
H      -49.93550000     -31.94000000     -70.79420000
H      -50.32520000     -33.12860000     -73.09010000
C      -48.10140000     -32.68040000     -68.92330000
H      -47.40460000     -33.23140000     -68.42090000
H      -48.94850000     -32.74210000     -68.22220000
C      -47.55600000     -36.63010000     -72.12480000
H      -48.47130000     -37.25630000     -71.95010000
H      -47.53690000     -36.55720000     -73.27140000
S      -47.72550000     -30.91460000     -69.23100000
S      -46.06890000     -37.38200000     -71.42860000
C      -45.87910000     -30.76300000     -69.57470000
H      -45.78560000     -29.75790000     -70.07700000
H      -45.24500000     -30.78530000     -68.66960000
C      -44.76100000     -36.29640000     -72.12070000
H      -44.90220000     -36.27940000     -73.23680000
H      -43.98620000     -36.99100000     -72.13090000
C      -44.64280000     -34.86490000     -71.52650000
H      -45.52740000     -34.26390000     -71.76130000
H      -44.71410000     -34.88350000     -70.40230000
C      -45.46440000     -31.92450000     -70.58630000
H      -46.12900000     -31.89650000     -71.53890000
H      -45.60660000     -32.88130000     -70.05140000
C      -44.03040000     -31.72980000     -71.04730000
C      -43.32880000     -30.53510000     -71.02940000
C      -43.22510000     -32.72650000     -71.71940000
H      -43.63990000     -29.55070000     -70.64120000
C      -41.95380000     -32.27940000     -72.07860000
C      -43.36720000     -34.13300000     -71.90510000
C      -42.20590000     -34.68670000     -72.48450000
S      -41.69020000     -30.57550000     -71.75670000
S      -40.93500000     -33.52940000     -72.69910000
H      -42.14270000     -35.66770000     -72.93850000
