40
Properties=species:S:1:pos:R:3 #=T CELL(abcABC):=T 1.889726e+02=T 90.00000=T Traj:=T positionsangstrom=T Step:=T 0=T Bead:=T pbc="F F F"
C      -47.47320000     -32.65090000     -70.46840000
C      -47.45790000     -32.09690000     -71.76430000
C      -47.27900000     -33.07680000     -72.77920000
C      -47.16420000     -34.45050000     -72.50570000
C      -47.41360000     -34.91540000     -71.24340000
C      -47.62000000     -34.00950000     -70.20340000
H      -47.70290000     -31.87640000     -69.69030000
H      -47.09990000     -32.69890000     -73.75500000
H      -47.53600000     -35.94260000     -71.00230000
H      -47.71930000     -34.39600000     -69.14770000
C      -46.99970000     -35.39660000     -73.63570000
H      -47.21510000     -34.94930000     -74.67000000
H      -47.79780000     -36.21050000     -73.49120000
C      -47.42720000     -30.58800000     -71.90650000
H      -48.25310000     -30.18110000     -72.44390000
H      -47.36880000     -30.08050000     -70.94500000
S      -45.40790000     -36.34730000     -73.65550000
S      -45.99830000     -29.99180000     -73.06270000
C      -44.33330000     -34.82560000     -73.74490000
H      -43.90660000     -34.82890000     -74.71820000
H      -44.96300000     -33.99080000     -73.78100000
C      -44.39620000     -29.99930000     -72.11440000
H      -44.48940000     -29.50210000     -71.09070000
H      -43.74130000     -29.40810000     -72.70870000
C      -43.67100000     -31.33410000     -71.92690000
H      -43.82720000     -32.06580000     -72.75180000
H      -42.57420000     -31.15620000     -71.96350000
C      -43.21580000     -34.71370000     -72.74070000
H      -42.60900000     -33.85100000     -72.99920000
H      -42.58770000     -35.65560000     -72.88060000
C      -43.60730000     -34.61470000     -71.30410000
C      -43.62510000     -35.75790000     -70.47980000
C      -43.85490000     -33.47550000     -70.39000000
H      -43.35210000     -36.75790000     -70.86530000
C      -44.14060000     -33.83230000     -69.06820000
C      -44.03750000     -32.03430000     -70.62250000
C      -44.70160000     -31.38270000     -69.51130000
S      -43.91790000     -35.52700000     -68.77650000
S      -44.75550000     -32.52110000     -68.09900000
H      -44.91070000     -30.37930000     -69.36870000
