40
Properties=species:S:1:pos:R:3 #=T CELL(abcABC):=T 1.889726e+02=T 90.00000=T Traj:=T positionsangstrom=T Step:=T 0=T Bead:=T pbc="F F F"
C      -44.29950000     -33.51520000     -75.41750000
C      -45.66200000     -33.51060000     -75.03920000
C      -46.12140000     -34.67660000     -74.35280000
C      -45.26220000     -35.71240000     -73.98970000
C      -43.94400000     -35.69330000     -74.46660000
C      -43.47430000     -34.64170000     -75.18550000
H      -43.90870000     -32.58060000     -75.93010000
H      -47.15990000     -34.62560000     -73.94660000
H      -43.22200000     -36.54180000     -74.29650000
H      -42.50410000     -34.78830000     -75.62460000
C      -45.82090000     -36.98650000     -73.36490000
H      -45.50870000     -37.94860000     -73.78290000
H      -46.91970000     -36.88460000     -73.55220000
C      -46.55520000     -32.27770000     -75.20770000
H      -45.98670000     -31.44460000     -75.68370000
H      -47.47530000     -32.49900000     -75.81480000
S      -45.37520000     -37.05380000     -71.55040000
S      -47.27560000     -31.59180000     -73.71760000
C      -45.72490000     -35.37560000     -70.75220000
H      -46.63430000     -34.95120000     -71.27510000
H      -46.13350000     -35.60350000     -69.83380000
C      -45.98700000     -31.76120000     -72.40290000
H      -45.23670000     -30.93270000     -72.55070000
H      -45.45110000     -32.70630000     -72.46500000
C      -46.83370000     -31.58910000     -71.12200000
H      -47.37110000     -30.63680000     -71.12900000
H      -47.60110000     -32.40090000     -70.96260000
C      -44.50760000     -34.46770000     -70.76180000
H      -44.64670000     -33.76080000     -71.64770000
H      -43.67820000     -35.12100000     -70.99540000
C      -44.22790000     -33.53240000     -69.52480000
C      -43.35150000     -33.91730000     -68.55810000
C      -45.06800000     -32.38790000     -69.14600000
H      -42.57850000     -34.72760000     -68.60710000
C      -44.65080000     -31.94690000     -67.88870000
C      -46.05580000     -31.54320000     -69.77110000
C      -46.37680000     -30.51490000     -68.93630000
S      -43.48610000     -32.91970000     -67.13720000
S      -45.57850000     -30.54740000     -67.35940000
H      -47.15070000     -29.80440000     -69.04130000
