40
Properties=species:S:1:pos:R:3 #=T CELL(abcABC):=T 1.889726e+02=T 90.00000=T Traj:=T positionsangstrom=T Step:=T 0=T Bead:=T pbc="F F F"
C      -47.91400000     -32.71700000     -70.42740000
C      -47.88740000     -32.56270000     -71.81010000
C      -47.87210000     -33.74870000     -72.60000000
C      -47.89150000     -34.96790000     -71.89170000
C      -48.13710000     -35.08980000     -70.47640000
C      -48.16680000     -33.95270000     -69.72250000
H      -47.83530000     -31.68240000     -69.97120000
H      -47.84210000     -33.66420000     -73.66230000
H      -48.32030000     -36.04290000     -70.03370000
H      -48.28380000     -34.05820000     -68.66670000
C      -47.54980000     -36.27510000     -72.62660000
H      -47.84080000     -36.33800000     -73.67010000
H      -48.11330000     -37.09890000     -72.15110000
C      -47.73160000     -31.17790000     -72.42870000
H      -48.69120000     -30.87010000     -72.83200000
H      -47.44340000     -30.46670000     -71.67020000
S      -45.71250000     -36.82030000     -72.54970000
S      -46.55160000     -31.11420000     -73.85250000
C      -44.92740000     -35.28650000     -73.00290000
H      -44.77020000     -35.16040000     -74.08990000
H      -45.49980000     -34.41420000     -72.50450000
C      -44.86480000     -30.47560000     -73.16540000
H      -44.99070000     -29.79290000     -72.27940000
H      -44.61710000     -29.88340000     -73.97960000
C      -43.99600000     -31.73850000     -72.92000000
H      -44.41490000     -32.67250000     -73.36360000
H      -43.07040000     -31.57550000     -73.45250000
C      -43.45080000     -35.03920000     -72.35750000
H      -43.11610000     -34.30150000     -73.03070000
H      -42.85390000     -35.94220000     -72.56720000
C      -43.31330000     -34.46970000     -70.91350000
C      -43.09790000     -35.27550000     -69.87580000
C      -43.47480000     -33.08740000     -70.65910000
H      -43.08250000     -36.35530000     -69.88380000
C      -43.39410000     -32.83930000     -69.29790000
C      -43.76540000     -31.86310000     -71.36710000
C      -43.64750000     -30.73560000     -70.58320000
S      -43.00910000     -34.30320000     -68.41390000
S      -43.58810000     -31.15400000     -68.86840000
H      -43.87930000     -29.69370000     -70.95950000
