40
Properties=species:S:1:pos:R:3 #=T CELL(abcABC):=T 1.889726e+02=T 90.00000=T Traj:=T positionsangstrom=T Step:=T 0=T Bead:=T pbc="F F F"
C      -44.47500000     -33.12540000     -75.33480000
C      -45.82980000     -33.09190000     -74.78860000
C      -46.41750000     -34.25630000     -74.29490000
C      -45.62140000     -35.46720000     -74.27700000
C      -44.30610000     -35.48340000     -74.87700000
C      -43.79360000     -34.32600000     -75.43940000
H      -43.99200000     -32.09810000     -75.55520000
H      -47.40450000     -34.10260000     -73.83470000
H      -43.73180000     -36.40700000     -74.86900000
H      -42.78970000     -34.23800000     -75.86800000
C      -46.08350000     -36.75950000     -73.63640000
H      -45.79280000     -37.68940000     -74.15530000
H      -47.12270000     -36.75130000     -73.50250000
C      -46.62240000     -31.83860000     -74.97920000
H      -45.98170000     -31.01160000     -75.29540000
H      -47.34400000     -31.91760000     -75.77500000
S      -45.38210000     -37.14300000     -71.94610000
S      -47.52840000     -31.34960000     -73.45550000
C      -45.67350000     -35.70820000     -70.81500000
H      -46.63660000     -35.13170000     -70.98270000
H      -45.79320000     -36.01320000     -69.76100000
C      -46.27630000     -31.11770000     -72.13010000
H      -46.10910000     -30.01990000     -72.07180000
H      -45.33780000     -31.49710000     -72.56910000
C      -46.69140000     -32.01580000     -70.94930000
H      -47.73840000     -31.78300000     -70.71380000
H      -46.64640000     -33.05500000     -71.25010000
C      -44.35120000     -34.86620000     -70.72830000
H      -44.30940000     -34.29490000     -71.66600000
H      -43.48090000     -35.44930000     -70.59580000
C      -44.26000000     -33.90750000     -69.45060000
C      -43.43210000     -34.37240000     -68.44230000
C      -44.87040000     -32.61960000     -69.09500000
H      -42.87070000     -35.31940000     -68.48790000
C      -44.43750000     -32.17970000     -67.87440000
C      -45.87060000     -31.76800000     -69.69200000
C      -46.07640000     -30.63540000     -68.90550000
S      -43.24340000     -33.23130000     -67.04220000
S      -45.10630000     -30.62380000     -67.42040000
H      -46.68500000     -29.79650000     -69.14490000
