40
Properties=species:S:1:pos:R:3 #=T CELL(abcABC):=T 1.889726e+02=T 90.00000=T Traj:=T positionsangstrom=T Step:=T 0=T Bead:=T pbc="F F F"
C      -48.82970000     -32.60970000     -71.40280000
C      -47.49600000     -32.35220000     -71.08450000
C      -46.84010000     -33.21830000     -70.17200000
C      -47.40350000     -34.47680000     -69.86120000
C      -48.70970000     -34.80970000     -70.20010000
C      -49.46330000     -33.82510000     -70.91270000
H      -49.39070000     -31.96040000     -72.01910000
H      -45.81180000     -33.04580000     -70.00730000
H      -49.01570000     -35.79990000     -69.97550000
H      -50.56290000     -33.85970000     -71.11930000
C      -46.48810000     -35.40400000     -69.09150000
H      -46.98780000     -35.97640000     -68.30940000
H      -45.63970000     -34.87120000     -68.60330000
C      -46.85010000     -31.13990000     -71.70380000
H      -47.31190000     -30.20580000     -71.53770000
H      -45.79570000     -30.94270000     -71.49670000
S      -45.74940000     -36.84870000     -70.14750000
S      -46.88610000     -31.37480000     -73.54690000
C      -45.51870000     -36.06820000     -71.85640000
H      -45.86910000     -36.61930000     -72.66530000
H      -46.09750000     -35.12810000     -71.88440000
C      -46.16050000     -33.06890000     -73.84670000
H      -46.56190000     -33.32450000     -74.87000000
H      -46.51700000     -33.79160000     -73.10080000
C      -44.67070000     -32.97740000     -74.09220000
H      -44.37690000     -34.01850000     -74.34360000
H      -44.48780000     -32.34710000     -74.94160000
C      -44.06020000     -35.65870000     -72.05900000
H      -43.85810000     -35.28730000     -73.05220000
H      -43.39340000     -36.51100000     -71.95330000
C      -43.54600000     -34.54820000     -71.16560000
C      -43.05930000     -34.71220000     -69.90290000
C      -43.54180000     -33.19610000     -71.68480000
H      -43.09710000     -35.63470000     -69.41470000
C      -42.88240000     -32.34470000     -70.75070000
C      -43.90750000     -32.43760000     -72.89660000
C      -43.75270000     -31.14350000     -72.68320000
S      -42.43120000     -33.15410000     -69.24120000
S      -42.88240000     -30.70520000     -71.22390000
H      -43.91150000     -30.28980000     -73.40500000
