40
Properties=species:S:1:pos:R:3 #=T CELL(abcABC):=T 1.889726e+02=T 90.00000=T Traj:=T positionsangstrom=T Step:=T 0=T Bead:=T pbc="F F F"
C      -44.35860000     -32.69040000     -74.81150000
C      -45.78090000     -32.66390000     -74.53180000
C      -46.48260000     -33.81750000     -74.16150000
C      -45.76560000     -35.00890000     -74.17980000
C      -44.41760000     -35.04730000     -74.54280000
C      -43.66570000     -33.89060000     -74.77130000
H      -43.84840000     -31.80260000     -75.13480000
H      -47.49940000     -33.79930000     -73.78460000
H      -43.96730000     -35.99130000     -74.44210000
H      -42.60520000     -33.92100000     -75.00040000
C      -46.35780000     -36.27230000     -73.66830000
H      -46.62760000     -36.98800000     -74.47440000
H      -47.25480000     -36.18130000     -73.07960000
C      -46.47270000     -31.30850000     -74.57880000
H      -45.69420000     -30.57140000     -74.75710000
H      -47.07590000     -31.20510000     -75.44270000
S      -45.21550000     -37.23540000     -72.54440000
S      -47.56950000     -30.91900000     -73.17300000
C      -44.92530000     -36.25700000     -70.98810000
H      -45.64890000     -36.57130000     -70.19430000
H      -43.96440000     -36.71590000     -70.59120000
C      -46.44470000     -31.16240000     -71.73090000
H      -46.12090000     -30.21470000     -71.16110000
H      -45.54710000     -31.67100000     -72.01730000
C      -47.09460000     -32.10370000     -70.63570000
H      -48.02970000     -31.67280000     -70.29540000
H      -47.33860000     -33.17900000     -70.90420000
C      -44.76300000     -34.72020000     -71.20470000
H      -45.72910000     -34.31970000     -71.59810000
H      -44.04650000     -34.52280000     -72.15420000
C      -44.34330000     -34.09150000     -69.89270000
C      -43.26210000     -34.48740000     -69.16410000
C      -44.99710000     -32.91020000     -69.29390000
H      -42.75610000     -35.42070000     -69.21150000
C      -44.39770000     -32.55290000     -68.05960000
C      -46.19320000     -32.03560000     -69.41850000
C      -46.31660000     -31.09770000     -68.44170000
S      -43.04140000     -33.53630000     -67.70920000
S      -45.04440000     -31.23660000     -67.15550000
H      -47.07920000     -30.32110000     -68.48390000
