40
Properties=species:S:1:pos:R:3 #=T CELL(abcABC):=T 1.889726e+02=T 90.00000=T Traj:=T positionsangstrom=T Step:=T 0=T Bead:=T pbc="F F F"
C      -44.12310000     -33.60320000     -74.68810000
C      -45.53200000     -33.57590000     -74.70620000
C      -46.19450000     -34.69200000     -74.19030000
C      -45.55330000     -35.78200000     -73.64080000
C      -44.14950000     -35.82700000     -73.69070000
C      -43.43780000     -34.72750000     -74.19000000
H      -43.63980000     -32.67910000     -75.04320000
H      -47.22520000     -34.77470000     -74.08610000
H      -43.56160000     -36.63610000     -73.24900000
H      -42.39380000     -34.81650000     -74.23000000
C      -46.36340000     -36.92010000     -73.02380000
H      -46.24580000     -37.88590000     -73.53460000
H      -47.44260000     -36.74610000     -73.06700000
C      -46.22840000     -32.29880000     -75.27370000
H      -45.48930000     -31.72040000     -75.82930000
H      -46.99740000     -32.66990000     -75.97730000
S      -45.83160000     -37.18260000     -71.23140000
S      -47.18560000     -31.29530000     -74.02310000
C      -45.79250000     -35.56750000     -70.49170000
H      -46.67820000     -34.94500000     -70.80120000
H      -46.00040000     -35.78940000     -69.43450000
C      -46.11710000     -31.23930000     -72.49270000
H      -46.07430000     -30.21400000     -72.21520000
H      -45.12500000     -31.47480000     -72.87010000
C      -46.59190000     -32.31920000     -71.55810000
H      -47.62150000     -32.21900000     -71.49720000
H      -46.26190000     -33.21860000     -71.97270000
C      -44.47810000     -34.82940000     -70.62180000
H      -44.49030000     -34.21640000     -71.49680000
H      -43.62150000     -35.48670000     -70.73420000
C      -44.20640000     -33.75940000     -69.51030000
C      -43.15870000     -33.80410000     -68.58260000
C      -44.98480000     -32.52550000     -69.36730000
H      -42.59920000     -34.62940000     -68.27490000
C      -44.54490000     -31.81150000     -68.23800000
C      -46.09640000     -31.96490000     -70.09550000
C      -46.54720000     -30.84970000     -69.39660000
S      -43.15670000     -32.50190000     -67.31130000
S      -45.48520000     -30.29190000     -68.09380000
H      -47.38980000     -30.20330000     -69.73400000
