40
Properties=species:S:1:pos:R:3 #=T CELL(abcABC):=T 1.889726e+02=T 90.00000=T Traj:=T positionsangstrom=T Step:=T 0=T Bead:=T pbc="F F F"
C      -46.71750000     -35.57480000     -71.54770000
C      -45.42160000     -35.99560000     -71.92920000
C      -44.41840000     -35.92510000     -71.00290000
C      -44.60200000     -35.23790000     -69.78500000
C      -45.91590000     -34.81990000     -69.48120000
C      -46.99970000     -35.03220000     -70.31520000
H      -47.57860000     -35.66050000     -72.23320000
H      -43.41890000     -36.25290000     -71.33880000
H      -46.05230000     -34.30680000     -68.55320000
H      -47.98580000     -34.57290000     -70.07830000
C      -43.51510000     -35.00640000     -68.77710000
H      -42.75730000     -35.67750000     -68.96490000
H      -43.78520000     -35.14580000     -67.67060000
C      -45.17250000     -36.66700000     -73.16140000
H      -44.21410000     -37.27960000     -73.29150000
H      -46.01880000     -37.42400000     -73.43050000
S      -42.71220000     -33.33000000     -68.78150000
S      -45.39950000     -35.43550000     -74.57180000
C      -42.53400000     -32.93340000     -70.55800000
H      -41.47830000     -32.95970000     -70.74130000
H      -43.00600000     -33.73690000     -71.11690000
C      -44.24410000     -34.03380000     -73.99750000
H      -43.32250000     -34.10280000     -74.62430000
H      -43.88120000     -34.25310000     -73.01800000
C      -44.79490000     -32.60760000     -73.98750000
H      -43.87470000     -31.99940000     -73.77320000
H      -45.03800000     -32.24700000     -74.98210000
C      -43.07470000     -31.57280000     -71.12920000
H      -42.96500000     -31.66450000     -72.20990000
H      -42.33880000     -30.79100000     -70.80820000
C      -44.50000000     -31.36920000     -70.74670000
C      -44.88730000     -30.93500000     -69.53210000
C      -45.65040000     -31.80030000     -71.53100000
H      -44.29110000     -30.65280000     -68.74290000
C      -46.81360000     -31.48880000     -70.91100000
C      -45.83020000     -32.28970000     -72.94480000
C      -47.17630000     -32.28300000     -73.24170000
S      -46.64670000     -30.83800000     -69.31120000
S      -48.18910000     -31.82700000     -71.88750000
H      -47.68680000     -32.79140000     -74.01620000
