40
Properties=species:S:1:pos:R:3 #=T CELL(abcABC):=T 1.889726e+02=T 90.00000=T Traj:=T positionsangstrom=T Step:=T 0=T Bead:=T pbc="F F F"
C      -43.94480000     -33.54660000     -74.67270000
C      -45.37370000     -33.41000000     -74.75240000
C      -46.12720000     -34.38730000     -74.04170000
C      -45.61990000     -35.57960000     -73.53130000
C      -44.19330000     -35.69300000     -73.56910000
C      -43.37310000     -34.73510000     -74.17090000
H      -43.36070000     -32.82580000     -75.16940000
H      -47.17230000     -34.32740000     -73.96630000
H      -43.86670000     -36.63730000     -73.16610000
H      -42.31780000     -34.89370000     -73.96640000
C      -46.49000000     -36.61940000     -72.83100000
H      -46.52330000     -37.45150000     -73.51230000
H      -47.51500000     -36.21850000     -72.68190000
C      -46.03280000     -32.21410000     -75.31760000
H      -45.33570000     -31.39880000     -75.51430000
H      -46.62360000     -32.37260000     -76.21400000
S      -45.78130000     -37.31440000     -71.31360000
S      -47.17920000     -31.40630000     -74.07990000
C      -45.64270000     -35.85030000     -70.17170000
H      -46.57990000     -35.27330000     -70.19640000
H      -45.51800000     -36.29190000     -69.23960000
C      -46.25150000     -31.34310000     -72.58020000
H      -46.33310000     -30.36390000     -72.10900000
H      -45.07970000     -31.47360000     -72.73560000
C      -46.72260000     -32.33190000     -71.45930000
H      -47.81150000     -32.29050000     -71.46680000
H      -46.57760000     -33.39750000     -71.71770000
C      -44.43610000     -34.97720000     -70.50600000
H      -44.49860000     -34.66770000     -71.57640000
H      -43.54650000     -35.60420000     -70.43950000
C      -44.26950000     -33.83340000     -69.54910000
C      -43.28360000     -33.94040000     -68.58120000
C      -45.01690000     -32.53520000     -69.45960000
H      -42.57520000     -34.66860000     -68.25830000
C      -44.56530000     -31.80460000     -68.34100000
C      -46.12110000     -31.90010000     -70.17270000
C      -46.43410000     -30.68950000     -69.57000000
S      -43.22990000     -32.47340000     -67.47250000
S      -45.56030000     -30.35020000     -68.04150000
H      -47.11160000     -29.91040000     -69.96060000
