40
Properties=species:S:1:pos:R:3 #=T CELL(abcABC):=T 1.889726e+02=T 90.00000=T Traj:=T positionsangstrom=T Step:=T 0=T Bead:=T pbc="F F F"
C      -45.09730000     -36.94250000     -72.77990000
C      -44.69750000     -36.67530000     -71.45100000
C      -43.52940000     -35.99140000     -71.12540000
C      -42.72950000     -35.40520000     -72.14660000
C      -43.12550000     -35.65370000     -73.45920000
C      -44.27290000     -36.40800000     -73.78260000
H      -46.05440000     -37.35590000     -72.97680000
H      -43.33730000     -35.89510000     -70.01370000
H      -42.45840000     -35.27830000     -74.21250000
H      -44.41650000     -36.69720000     -74.86460000
C      -41.42370000     -34.77640000     -71.87030000
H      -40.96010000     -34.39240000     -72.86030000
H      -40.65990000     -35.42930000     -71.44610000
C      -45.47260000     -37.25440000     -70.35130000
H      -46.22170000     -38.06660000     -70.58550000
H      -44.83600000     -37.78440000     -69.61270000
S      -41.50910000     -33.37210000     -70.71720000
S      -46.49970000     -35.97770000     -69.42010000
C      -42.98040000     -32.35100000     -71.24530000
H      -42.53210000     -31.39110000     -71.62900000
H      -43.33260000     -32.80630000     -72.12310000
C      -47.50880000     -35.12410000     -70.71980000
H      -48.32680000     -34.64760000     -70.14340000
H      -47.93220000     -35.90520000     -71.42030000
C      -46.65860000     -34.13750000     -71.51640000
H      -45.64130000     -34.05460000     -71.15520000
H      -46.65150000     -34.47610000     -72.57350000
C      -44.07240000     -32.20340000     -70.24290000
H      -43.67010000     -31.85160000     -69.22710000
H      -44.44890000     -33.19620000     -70.03090000
C      -45.20730000     -31.24790000     -70.64180000
C      -45.01230000     -29.87970000     -70.55490000
C      -46.50330000     -31.52870000     -71.22050000
H      -44.10370000     -29.39110000     -70.23100000
C      -47.16760000     -30.37730000     -71.53820000
C      -47.21920000     -32.72280000     -71.48740000
C      -48.51250000     -32.48180000     -71.92410000
S      -46.29830000     -28.88840000     -71.23680000
S      -48.87930000     -30.77710000     -71.94740000
H      -49.35280000     -33.14120000     -72.18630000
