40
Properties=species:S:1:pos:R:3 #=T CELL(abcABC):=T 1.889726e+02=T 90.00000=T Traj:=T positionsangstrom=T Step:=T 0=T Bead:=T pbc="F F F"
C      -43.91600000     -33.57730000     -74.88830000
C      -45.22560000     -33.35490000     -74.53500000
C      -45.97930000     -34.43520000     -73.97310000
C      -45.44110000     -35.67430000     -73.67310000
C      -44.07320000     -35.83900000     -73.95910000
C      -43.31530000     -34.79080000     -74.54270000
H      -43.23060000     -32.82840000     -75.38170000
H      -47.02060000     -34.11680000     -73.80040000
H      -43.68720000     -36.88590000     -73.88100000
H      -42.23720000     -34.91250000     -74.81530000
C      -46.18860000     -36.79270000     -73.06210000
H      -46.33820000     -37.58930000     -73.83890000
H      -47.18550000     -36.45390000     -72.82740000
C      -45.88420000     -32.05910000     -75.09450000
H      -45.20190000     -31.25890000     -75.21680000
H      -46.43970000     -32.24630000     -76.05110000
S      -45.40890000     -37.40800000     -71.47540000
S      -47.24180000     -31.48240000     -74.03940000
C      -45.40050000     -35.90880000     -70.33250000
H      -46.36670000     -35.42160000     -70.20920000
H      -44.93490000     -36.41990000     -69.47240000
C      -46.52560000     -31.04470000     -72.42640000
H      -46.92550000     -30.03180000     -72.08740000
H      -45.45520000     -31.00910000     -72.61450000
C      -46.90590000     -32.06910000     -71.27780000
H      -47.95140000     -31.97530000     -71.30580000
H      -46.70670000     -33.05970000     -71.72650000
C      -44.56710000     -34.70590000     -70.74650000
H      -45.03490000     -34.27970000     -71.67460000
H      -43.55080000     -35.05410000     -70.96470000
C      -44.40830000     -33.72590000     -69.61210000
C      -43.43920000     -33.95070000     -68.62250000
C      -45.13330000     -32.48000000     -69.33600000
H      -42.88870000     -34.88600000     -68.34640000
C      -44.68920000     -31.80430000     -68.18880000
C      -46.29740000     -31.75550000     -69.94660000
C      -46.56770000     -30.54620000     -69.32560000
S      -43.43590000     -32.66540000     -67.41600000
S      -45.63910000     -30.37330000     -67.81890000
H      -47.28140000     -29.84330000     -69.53240000
