40
Properties=species:S:1:pos:R:3 #=T CELL(abcABC):=T 1.889726e+02=T 90.00000=T Traj:=T positionsangstrom=T Step:=T 0=T Bead:=T pbc="F F F"
C      -44.25700000     -33.58310000     -74.81160000
C      -45.60870000     -33.64700000     -74.70320000
C      -46.19490000     -34.78100000     -74.11350000
C      -45.43320000     -35.86500000     -73.65150000
C      -44.04570000     -35.84800000     -73.83780000
C      -43.44060000     -34.74080000     -74.46920000
H      -43.70140000     -32.70830000     -75.22630000
H      -47.30290000     -34.79540000     -74.16570000
H      -43.40230000     -36.76480000     -73.66800000
H      -42.37280000     -34.83580000     -74.70830000
C      -46.06590000     -37.03490000     -73.00780000
H      -45.63250000     -37.98300000     -73.41110000
H      -47.13710000     -37.02780000     -73.21980000
C      -46.39400000     -32.50110000     -75.31100000
H      -45.78570000     -31.88810000     -75.99440000
H      -47.27730000     -32.91000000     -75.85370000
S      -45.85860000     -37.09130000     -71.22270000
S      -47.21280000     -31.37670000     -74.10190000
C      -45.64600000     -35.42920000     -70.42790000
H      -46.45320000     -34.77800000     -70.60760000
H      -45.67770000     -35.69580000     -69.35890000
C      -46.28160000     -31.20470000     -72.55180000
H      -46.59950000     -30.22430000     -72.05720000
H      -45.24020000     -31.19040000     -72.71330000
C      -46.57670000     -32.19800000     -71.46610000
H      -47.71790000     -32.31370000     -71.31660000
H      -46.23710000     -33.24090000     -71.73360000
C      -44.28070000     -34.83080000     -70.56320000
H      -44.18340000     -34.47500000     -71.59600000
H      -43.49080000     -35.62830000     -70.33190000
C      -44.16730000     -33.68430000     -69.53180000
C      -43.28540000     -33.83790000     -68.50910000
C      -44.95340000     -32.45580000     -69.41370000
H      -42.62860000     -34.69650000     -68.40660000
C      -44.65030000     -31.87410000     -68.19770000
C      -46.03060000     -31.75000000     -70.09250000
C      -46.29170000     -30.51890000     -69.48880000
S      -43.27520000     -32.52740000     -67.28720000
S      -45.52380000     -30.36810000     -67.90040000
H      -47.20450000     -29.96650000     -69.71800000
