40
Properties=species:S:1:pos:R:3 #=T CELL(abcABC):=T 1.889726e+02=T 90.00000=T Traj:=T positionsangstrom=T Step:=T 0=T Bead:=T pbc="F F F"
C      -46.76150000     -35.69250000     -71.47610000
C      -45.48520000     -36.01690000     -71.89620000
C      -44.45350000     -35.90030000     -70.94200000
C      -44.70100000     -35.44080000     -69.56270000
C      -45.99430000     -35.02110000     -69.19490000
C      -46.98080000     -35.23570000     -70.20450000
H      -47.56440000     -35.82840000     -72.19460000
H      -43.39470000     -36.15050000     -71.21810000
H      -46.14640000     -34.65990000     -68.22360000
H      -47.97450000     -34.97410000     -69.95350000
C      -43.60640000     -35.22180000     -68.55260000
H      -42.79590000     -35.86960000     -68.81890000
H      -43.87520000     -35.58820000     -67.53400000
C      -45.10280000     -36.36280000     -73.29800000
H      -44.11180000     -36.82940000     -73.49070000
H      -45.90170000     -37.04800000     -73.68030000
S      -43.02990000     -33.44220000     -68.46240000
S      -45.10430000     -34.86310000     -74.36550000
C      -42.58130000     -33.04620000     -70.17320000
H      -41.49430000     -33.16140000     -70.25910000
H      -43.04890000     -33.74060000     -70.85680000
C      -43.73760000     -33.81880000     -73.78570000
H      -42.85370000     -33.90420000     -74.44310000
H      -43.34520000     -34.09730000     -72.74910000
C      -44.15350000     -32.31540000     -73.86710000
H      -43.36680000     -31.64770000     -73.50020000
H      -44.28370000     -32.09090000     -74.89230000
C      -43.16460000     -31.65420000     -70.57320000
H      -42.82150000     -31.27940000     -71.53790000
H      -42.75730000     -30.95840000     -69.75830000
C      -44.72380000     -31.57960000     -70.53340000
C      -45.39370000     -31.43020000     -69.33980000
C      -45.59330000     -31.63380000     -71.68280000
H      -44.98510000     -31.51270000     -68.25110000
C      -46.92480000     -31.39070000     -71.32800000
C      -45.43220000     -31.92110000     -73.11770000
C      -46.63720000     -31.91230000     -73.78000000
S      -47.18810000     -31.38130000     -69.66620000
S      -48.00890000     -31.74260000     -72.63920000
H      -46.78520000     -31.96480000     -74.88500000
