40
Properties=species:S:1:pos:R:3 #=T CELL(abcABC):=T 1.889726e+02=T 90.00000=T Traj:=T positionsangstrom=T Step:=T 0=T Bead:=T pbc="F F F"
C      -46.83500000     -35.27770000     -71.50530000
C      -45.52620000     -35.55000000     -71.92840000
C      -44.50790000     -35.71120000     -70.95510000
C      -44.75790000     -35.45090000     -69.68310000
C      -46.06510000     -35.08400000     -69.23200000
C      -47.16190000     -35.11590000     -70.09600000
H      -47.68770000     -35.31030000     -72.19550000
H      -43.47830000     -36.03080000     -71.28680000
H      -46.28690000     -34.89290000     -68.20200000
H      -48.16980000     -34.94020000     -69.65200000
C      -43.69820000     -35.51620000     -68.55940000
H      -42.83580000     -36.09880000     -68.82110000
H      -44.15280000     -36.05230000     -67.66660000
C      -45.24980000     -35.98790000     -73.34410000
H      -44.42200000     -36.68830000     -73.26460000
H      -46.04150000     -36.49480000     -73.87950000
S      -43.07500000     -33.79740000     -68.14590000
S      -44.90370000     -34.62480000     -74.51970000
C      -42.61770000     -33.17480000     -69.77220000
H      -41.53200000     -32.92170000     -69.82710000
H      -42.74610000     -33.98110000     -70.51370000
C      -43.56920000     -33.67130000     -73.70300000
H      -42.68720000     -33.91950000     -74.23470000
H      -43.39730000     -34.14140000     -72.74480000
C      -43.80210000     -32.15240000     -73.58370000
H      -42.97490000     -31.68630000     -73.00880000
H      -43.69130000     -31.76990000     -74.57280000
C      -43.41400000     -31.84580000     -70.15840000
H      -42.95210000     -31.55740000     -71.07480000
H      -43.06110000     -31.20130000     -69.36460000
C      -44.90400000     -31.92460000     -70.32930000
C      -45.80530000     -31.89300000     -69.30750000
C      -45.52200000     -31.76820000     -71.68940000
H      -45.68610000     -31.85330000     -68.30040000
C      -46.88230000     -31.53320000     -71.55350000
C      -45.15850000     -31.84780000     -73.05650000
C      -46.23640000     -31.55970000     -73.86220000
S      -47.48460000     -31.76880000     -69.90260000
S      -47.74490000     -31.43920000     -73.02020000
H      -46.21470000     -31.68050000     -74.94390000
