40
Properties=species:S:1:pos:R:3 #=T CELL(abcABC):=T 1.889726e+02=T 90.00000=T Traj:=T positionsangstrom=T Step:=T 0=T Bead:=T pbc="F F F"
C      -46.73580000     -35.56720000     -71.50070000
C      -45.45300000     -35.86090000     -71.92930000
C      -44.44260000     -35.81360000     -70.93720000
C      -44.72190000     -35.51620000     -69.53650000
C      -46.08520000     -35.12020000     -69.18450000
C      -47.05360000     -35.14980000     -70.16510000
H      -47.50580000     -35.49190000     -72.19910000
H      -43.38650000     -36.01210000     -71.24290000
H      -46.20230000     -34.81440000     -68.13480000
H      -48.02880000     -34.88060000     -69.89110000
C      -43.60150000     -35.43060000     -68.54930000
H      -42.70650000     -35.86460000     -68.98810000
H      -43.87030000     -35.83420000     -67.58670000
C      -45.11580000     -36.29790000     -73.36530000
H      -44.21760000     -36.86070000     -73.34310000
H      -45.88460000     -36.94080000     -73.79850000
S      -43.10980000     -33.57900000     -68.24670000
S      -45.04850000     -34.79790000     -74.42040000
C      -42.68260000     -32.94600000     -70.08460000
H      -41.59170000     -32.92070000     -70.14190000
H      -43.05680000     -33.80020000     -70.72160000
C      -43.80510000     -33.70610000     -73.51020000
H      -42.80010000     -33.97710000     -73.82870000
H      -43.93900000     -33.91140000     -72.44840000
C      -44.09870000     -32.22860000     -73.82000000
H      -43.22410000     -31.71570000     -73.28110000
H      -44.04280000     -31.96280000     -74.87960000
C      -43.25090000     -31.60420000     -70.45570000
H      -42.79250000     -31.47020000     -71.37540000
H      -42.97420000     -30.73230000     -69.80670000
C      -44.77660000     -31.65670000     -70.54280000
C      -45.52840000     -31.49870000     -69.42520000
C      -45.51980000     -31.76720000     -71.73850000
H      -45.04540000     -31.58080000     -68.40020000
C      -46.85770000     -31.61750000     -71.41590000
C      -45.32040000     -31.86730000     -73.15710000
C      -46.48730000     -31.71200000     -73.83130000
S      -47.22460000     -31.53720000     -69.72220000
S      -47.89700000     -31.62500000     -72.84320000
H      -46.56900000     -31.81820000     -74.91430000
