40
Properties=species:S:1:pos:R:3 #=T CELL(abcABC):=T 1.889726e+02=T 90.00000=T Traj:=T positionsangstrom=T Step:=T 0=T Bead:=T pbc="F F F"
C      -46.76390000     -35.30400000     -71.88880000
C      -45.50140000     -35.85290000     -72.09120000
C      -44.60490000     -36.07510000     -70.99040000
C      -45.00920000     -35.69020000     -69.67850000
C      -46.38390000     -35.37950000     -69.52710000
C      -47.26860000     -35.17870000     -70.59280000
H      -47.35970000     -34.87300000     -72.68160000
H      -43.63410000     -36.36460000     -71.16930000
H      -46.70990000     -35.21880000     -68.51590000
H      -48.25990000     -34.73200000     -70.48190000
C      -43.97120000     -35.64750000     -68.61570000
H      -43.07820000     -36.24130000     -68.94710000
H      -44.35000000     -35.99970000     -67.66910000
C      -44.88750000     -36.06660000     -73.45410000
H      -43.93080000     -36.54010000     -73.47040000
H      -45.57170000     -36.64110000     -74.09830000
S      -43.40790000     -33.91870000     -68.08610000
S      -44.63090000     -34.56140000     -74.46760000
C      -42.85810000     -33.25150000     -69.73730000
H      -41.75260000     -33.31070000     -69.75880000
H      -43.27120000     -33.93540000     -70.39560000
C      -43.37030000     -33.62110000     -73.42740000
H      -42.39030000     -33.71500000     -73.88450000
H      -43.38850000     -34.14650000     -72.47450000
C      -43.67060000     -32.15700000     -73.35650000
H      -42.95770000     -31.73670000     -72.66190000
H      -43.53980000     -31.69640000     -74.31560000
C      -43.35860000     -31.83980000     -69.87680000
H      -42.71250000     -31.37010000     -70.64060000
H      -43.27120000     -31.25580000     -69.00990000
C      -44.88050000     -31.70250000     -70.29180000
C      -45.82080000     -31.60470000     -69.27120000
C      -45.49870000     -31.69580000     -71.58870000
H      -45.59740000     -31.60990000     -68.19280000
C      -46.87900000     -31.60070000     -71.50520000
C      -45.06090000     -31.77510000     -72.97100000
C      -46.12320000     -31.62950000     -73.85810000
S      -47.47230000     -31.41510000     -69.83680000
S      -47.62690000     -31.36230000     -73.05580000
H      -46.11640000     -31.68240000     -74.90230000
