40
Properties=species:S:1:pos:R:3 #=T CELL(abcABC):=T 1.889726e+02=T 90.00000=T Traj:=T positionsangstrom=T Step:=T 0=T Bead:=T pbc="F F F"
C      -46.55510000     -35.51530000     -72.49870000
C      -45.22220000     -35.90840000     -72.50560000
C      -44.62050000     -36.01290000     -71.26810000
C      -45.29240000     -35.81270000     -70.07330000
C      -46.63270000     -35.31020000     -70.06910000
C      -47.23790000     -35.17940000     -71.28350000
H      -47.02590000     -35.30010000     -73.46690000
H      -43.61730000     -36.33470000     -71.23740000
H      -47.18650000     -35.04690000     -69.10490000
H      -48.26050000     -34.74840000     -71.37680000
C      -44.56720000     -35.90920000     -68.70810000
H      -43.76790000     -36.66940000     -68.72890000
H      -45.34690000     -36.11560000     -67.97440000
C      -44.40320000     -36.09720000     -73.74050000
H      -43.35460000     -36.45580000     -73.76370000
H      -44.91690000     -36.68090000     -74.53860000
S      -43.84580000     -34.29530000     -68.14520000
S      -44.36290000     -34.44500000     -74.59530000
C      -42.93170000     -33.53910000     -69.54420000
H      -41.86150000     -33.65860000     -69.46390000
H      -43.26620000     -34.06880000     -70.53790000
C      -43.42480000     -33.51460000     -73.24850000
H      -42.33140000     -33.64860000     -73.32140000
H      -43.69710000     -34.00610000     -72.29190000
C      -43.65090000     -32.01800000     -73.09840000
H      -42.93510000     -31.66750000     -72.38250000
H      -43.38100000     -31.58460000     -74.08260000
C      -43.28100000     -31.99080000     -69.64230000
H      -42.63060000     -31.48920000     -70.44430000
H      -42.99300000     -31.60570000     -68.64300000
C      -44.80710000     -31.64550000     -69.96080000
C      -45.75400000     -31.44640000     -68.98490000
C      -45.46290000     -31.67040000     -71.31580000
H      -45.59650000     -31.32590000     -67.88890000
C      -46.87910000     -31.45280000     -71.23490000
C      -45.03670000     -31.69260000     -72.64700000
C      -46.00000000     -31.42240000     -73.56510000
S      -47.42750000     -31.17900000     -69.61290000
S      -47.54710000     -31.29290000     -72.82250000
H      -46.09370000     -31.32400000     -74.68190000
