40
Properties=species:S:1:pos:R:3 #=T CELL(abcABC):=T 1.889726e+02=T 90.00000=T Traj:=T positionsangstrom=T Step:=T 0=T Bead:=T pbc="F F F"
C      -46.53330000     -34.68840000     -73.39230000
C      -45.27630000     -35.36750000     -73.11730000
C      -45.13620000     -36.13240000     -71.94700000
C      -46.14760000     -36.17950000     -71.01760000
C      -47.34390000     -35.57330000     -71.26470000
C      -47.55200000     -34.84490000     -72.42030000
H      -46.65390000     -33.94550000     -74.21130000
H      -44.19720000     -36.57050000     -71.60170000
H      -48.06350000     -35.69510000     -70.48980000
H      -48.47660000     -34.25340000     -72.43030000
C      -45.99010000     -36.77250000     -69.75120000
H      -45.25950000     -37.62840000     -69.54640000
H      -46.89310000     -37.30250000     -69.39420000
C      -44.11580000     -35.27240000     -74.09310000
H      -43.29680000     -36.00710000     -73.93200000
H      -44.49320000     -35.32720000     -75.14290000
S      -45.68890000     -35.44820000     -68.35390000
S      -43.35350000     -33.55550000     -74.05410000
C      -44.09850000     -34.80580000     -68.98480000
H      -43.27270000     -35.37830000     -68.60250000
H      -44.15020000     -35.05750000     -70.08020000
C      -42.63140000     -33.36040000     -72.34020000
H      -41.67370000     -33.78770000     -72.45270000
H      -43.20330000     -33.95210000     -71.64140000
C      -42.60730000     -31.89970000     -71.92780000
H      -41.88750000     -31.78810000     -71.09220000
H      -42.01690000     -31.36640000     -72.66460000
C      -43.96990000     -33.26790000     -69.02600000
H      -43.03060000     -33.06010000     -69.56330000
H      -43.86870000     -32.86290000     -68.01560000
C      -45.15820000     -32.53410000     -69.69670000
C      -46.41670000     -32.56200000     -69.14240000
C      -45.07180000     -31.67790000     -70.81460000
H      -46.64740000     -33.06530000     -68.26180000
C      -46.27130000     -31.07650000     -71.06340000
C      -43.97850000     -31.29830000     -71.80120000
C      -44.45630000     -30.33100000     -72.64210000
S      -47.56230000     -31.52760000     -69.97700000
S      -46.11900000     -29.95310000     -72.43740000
H      -43.92720000     -29.87960000     -73.49490000
