40
Properties=species:S:1:pos:R:3 #=T CELL(abcABC):=T 1.889726e+02=T 90.00000=T Traj:=T positionsangstrom=T Step:=T 0=T Bead:=T pbc="F F F"
C      -46.82590000     -34.98570000     -73.10580000
C      -45.48110000     -35.44880000     -73.04510000
C      -45.03070000     -36.03930000     -71.96980000
C      -45.85340000     -36.22600000     -70.82390000
C      -47.14170000     -35.72820000     -70.81590000
C      -47.63240000     -35.14910000     -72.01250000
H      -47.02550000     -34.38820000     -74.03970000
H      -43.99810000     -36.43630000     -72.00410000
H      -47.73310000     -35.82870000     -69.90580000
H      -48.59020000     -34.67010000     -71.93230000
C      -45.36920000     -36.88770000     -69.59120000
H      -44.54990000     -37.55680000     -69.81870000
H      -46.12620000     -37.51250000     -69.15320000
C      -44.36060000     -35.20910000     -74.07380000
H      -43.54320000     -35.92990000     -74.01600000
H      -44.73120000     -35.13950000     -75.15020000
S      -44.96450000     -35.74040000     -68.20660000
S      -43.62520000     -33.49140000     -74.10010000
C      -43.91560000     -34.49070000     -69.18420000
H      -42.85290000     -34.60640000     -69.02000000
H      -44.10970000     -34.71130000     -70.24760000
C      -42.65190000     -33.48960000     -72.50090000
H      -41.56100000     -33.59480000     -72.74560000
H      -42.96570000     -34.37610000     -71.88100000
C      -42.74220000     -32.11880000     -71.92100000
H      -42.25660000     -31.98970000     -70.89540000
H      -42.02340000     -31.49510000     -72.46910000
C      -44.35540000     -33.05210000     -68.79330000
H      -43.50620000     -32.40880000     -68.87110000
H      -44.68340000     -33.04510000     -67.73570000
C      -45.42090000     -32.31500000     -69.61120000
C      -46.63490000     -32.12630000     -69.07400000
C      -45.25020000     -31.68120000     -70.94200000
H      -46.91420000     -32.51330000     -68.09780000
C      -46.32960000     -30.93750000     -71.28110000
C      -44.15910000     -31.53820000     -71.87800000
C      -44.52210000     -30.73240000     -72.94100000
S      -47.69940000     -31.09600000     -70.08770000
S      -46.08840000     -29.97240000     -72.78380000
H      -43.87800000     -30.49200000     -73.77800000
