40
Properties=species:S:1:pos:R:3 #=T CELL(abcABC):=T 1.889726e+02=T 90.00000=T Traj:=T positionsangstrom=T Step:=T 0=T Bead:=T pbc="F F F"
C      -46.60070000     -35.02860000     -73.19260000
C      -45.33160000     -35.49590000     -73.11500000
C      -44.85580000     -35.96290000     -71.87050000
C      -45.63370000     -35.87050000     -70.70860000
C      -46.91770000     -35.32050000     -70.80920000
C      -47.42620000     -34.95510000     -72.02990000
H      -47.10070000     -34.67370000     -74.14970000
H      -43.80040000     -36.25340000     -71.76360000
H      -47.50060000     -35.16020000     -69.87480000
H      -48.48900000     -34.61870000     -72.11320000
C      -45.04050000     -36.38810000     -69.33310000
H      -44.08860000     -36.97630000     -69.45370000
H      -45.80130000     -37.06520000     -68.85880000
C      -44.38120000     -35.40170000     -74.24880000
H      -43.52250000     -36.05330000     -73.95560000
H      -44.88150000     -35.91560000     -75.10340000
S      -44.77070000     -35.05200000     -68.11400000
S      -43.70570000     -33.78430000     -74.51900000
C      -43.46140000     -34.10380000     -68.90880000
H      -42.46810000     -34.20130000     -68.43650000
H      -43.43690000     -34.41220000     -70.00320000
C      -43.09780000     -33.54450000     -72.76970000
H      -42.10770000     -33.93510000     -72.73500000
H      -43.74900000     -34.14380000     -72.10910000
C      -43.05840000     -32.13230000     -72.28210000
H      -42.46230000     -32.08570000     -71.35780000
H      -42.45640000     -31.52440000     -72.95770000
C      -43.84170000     -32.60070000     -68.88130000
H      -42.95190000     -32.09750000     -69.30950000
H      -43.88960000     -32.31590000     -67.77860000
C      -45.10420000     -32.16890000     -69.53520000
C      -46.27430000     -32.06850000     -68.83240000
C      -45.28910000     -31.78440000     -70.92820000
H      -46.45110000     -32.30110000     -67.75850000
C      -46.54610000     -31.29840000     -71.11480000
C      -44.40380000     -31.52070000     -72.10640000
C      -45.13390000     -31.04300000     -73.18760000
S      -47.61790000     -31.50240000     -69.72930000
S      -46.79980000     -30.58710000     -72.70590000
H      -44.69020000     -30.54380000     -74.09270000
