40
Properties=species:S:1:pos:R:3 #=T CELL(abcABC):=T 1.889726e+02=T 90.00000=T Traj:=T positionsangstrom=T Step:=T 0=T Bead:=T pbc="F F F"
C      -45.92580000     -35.53210000     -74.95580000
C      -45.18040000     -35.85210000     -73.80790000
C      -43.95180000     -35.14140000     -73.59380000
C      -43.64600000     -34.04010000     -74.43550000
C      -44.40890000     -33.76000000     -75.55770000
C      -45.60570000     -34.48010000     -75.81760000
H      -46.76090000     -36.21780000     -75.14810000
H      -43.42590000     -35.37030000     -72.64670000
H      -44.13620000     -32.84290000     -76.17430000
H      -46.14410000     -34.25690000     -76.69760000
C      -42.48660000     -33.08040000     -74.11840000
H      -42.73830000     -32.14450000     -74.66490000
H      -41.60270000     -33.52210000     -74.56110000
C      -45.53230000     -37.06160000     -72.90370000
H      -46.58860000     -37.14920000     -72.82180000
H      -45.13050000     -37.94700000     -73.49290000
S      -42.13770000     -32.74820000     -72.40810000
S      -44.89010000     -36.84730000     -71.14290000
C      -43.71050000     -32.12930000     -71.62400000
H      -43.67390000     -31.03150000     -71.67640000
H      -44.62930000     -32.47610000     -72.14750000
C      -46.00260000     -35.62860000     -70.31280000
H      -45.37850000     -35.15940000     -69.58900000
H      -46.84500000     -36.13830000     -69.83020000
C      -46.48240000     -34.34450000     -71.04500000
H      -45.69540000     -33.89470000     -71.73020000
H      -47.33850000     -34.63160000     -71.69930000
C      -43.62900000     -32.48490000     -70.15620000
H      -42.67600000     -32.22300000     -69.71890000
H      -43.58520000     -33.62920000     -69.93420000
C      -44.81280000     -31.84370000     -69.40130000
C      -44.59490000     -30.70930000     -68.65310000
C      -46.19800000     -32.20200000     -69.43650000
H      -43.62250000     -30.21540000     -68.61010000
C      -46.98450000     -31.38600000     -68.60920000
C      -46.98430000     -33.26150000     -70.15400000
C      -48.32040000     -32.93540000     -70.10780000
S      -46.02470000     -29.98960000     -67.95510000
S      -48.77910000     -31.70980000     -68.87600000
H      -49.15200000     -33.40720000     -70.62700000
