40
Properties=species:S:1:pos:R:3 #=T CELL(abcABC):=T 1.889726e+02=T 90.00000=T Traj:=T positionsangstrom=T Step:=T 0=T Bead:=T pbc="F F F"
C      -46.57460000     -35.00600000     -73.17900000
C      -45.28790000     -35.45670000     -73.02990000
C      -44.86130000     -36.01800000     -71.78510000
C      -45.67600000     -35.83070000     -70.62430000
C      -46.91480000     -35.23430000     -70.83980000
C      -47.41880000     -34.92680000     -72.10860000
H      -46.88990000     -34.72390000     -74.24510000
H      -43.83850000     -36.45310000     -71.82160000
H      -47.64390000     -35.13330000     -70.08480000
H      -48.46830000     -34.49030000     -72.21000000
C      -45.36540000     -36.19450000     -69.23430000
H      -44.71440000     -37.04950000     -69.25770000
H      -46.27560000     -36.49800000     -68.79800000
C      -44.31950000     -35.60940000     -74.19020000
H      -43.43270000     -36.20320000     -73.92470000
H      -44.73080000     -35.98610000     -75.10430000
S      -44.63020000     -34.92520000     -68.08520000
S      -43.74010000     -33.85800000     -74.39260000
C      -43.41500000     -33.94080000     -69.03950000
H      -42.43050000     -34.13020000     -68.61370000
H      -43.37080000     -34.30100000     -70.01100000
C      -42.77870000     -33.44010000     -72.90070000
H      -41.69760000     -33.50720000     -73.04950000
H      -43.10080000     -34.18520000     -72.15390000
C      -43.03100000     -31.96640000     -72.45040000
H      -42.45180000     -31.88520000     -71.51410000
H      -42.67590000     -31.37330000     -73.29810000
C      -43.66510000     -32.45670000     -69.04230000
H      -42.91160000     -31.95750000     -69.63220000
H      -43.58920000     -32.13010000     -68.03170000
C      -45.01810000     -32.13340000     -69.58660000
C      -46.12820000     -32.02410000     -68.76680000
C      -45.32830000     -31.73220000     -70.93880000
H      -46.25260000     -32.29560000     -67.73170000
C      -46.63530000     -31.38710000     -71.12430000
C      -44.51950000     -31.61050000     -72.18350000
C      -45.33120000     -31.13780000     -73.19700000
S      -47.58420000     -31.58030000     -69.68810000
S      -46.99790000     -30.80920000     -72.70440000
H      -45.06400000     -31.06580000     -74.24980000
