40
Properties=species:S:1:pos:R:3 #=T CELL(abcABC):=T 1.889726e+02=T 90.00000=T Traj:=T positionsangstrom=T Step:=T 0=T Bead:=T pbc="F F F"
C      -47.82790000     -34.44010000     -73.98010000
C      -46.66870000     -35.21760000     -73.80620000
C      -45.43860000     -34.62490000     -74.14030000
C      -45.30560000     -33.33120000     -74.66690000
C      -46.46580000     -32.60900000     -74.84890000
C      -47.74490000     -33.16030000     -74.53300000
H      -48.76140000     -34.79000000     -73.58980000
H      -44.48240000     -35.21170000     -74.09340000
H      -46.41440000     -31.65730000     -75.32790000
H      -48.62150000     -32.46010000     -74.69620000
C      -43.93710000     -32.79940000     -75.11960000
H      -44.06340000     -31.72720000     -75.50230000
H      -43.67960000     -33.51040000     -75.98280000
C      -46.63420000     -36.55650000     -73.16120000
H      -47.61500000     -36.95010000     -72.63430000
H      -46.45650000     -37.31460000     -73.90250000
S      -42.57370000     -32.79410000     -73.75230000
S      -45.22760000     -36.74320000     -71.87340000
C      -43.62360000     -32.14020000     -72.37000000
H      -43.38270000     -31.13060000     -72.10780000
H      -44.66460000     -32.19600000     -72.62610000
C      -45.70080000     -35.72760000     -70.38650000
H      -44.76590000     -35.53920000     -69.87390000
H      -46.24960000     -36.46650000     -69.67980000
C      -46.49910000     -34.43720000     -70.68850000
H      -46.23030000     -33.97720000     -71.72550000
H      -47.58390000     -34.63020000     -70.82000000
C      -43.49050000     -33.03630000     -71.10300000
H      -42.44800000     -33.29490000     -71.03170000
H      -43.98180000     -33.99290000     -71.31270000
C      -43.98570000     -32.43810000     -69.80610000
C      -43.24230000     -31.43660000     -69.14440000
C      -45.21730000     -32.69270000     -69.11890000
H      -42.26220000     -31.02120000     -69.45340000
C      -45.37670000     -31.96210000     -67.96460000
C      -46.37790000     -33.44850000     -69.56570000
C      -47.45980000     -33.19790000     -68.77520000
S      -44.15840000     -30.76580000     -67.79330000
S      -47.07800000     -32.05880000     -67.48570000
H      -48.41080000     -33.61580000     -68.79130000
