40
Properties=species:S:1:pos:R:3 #=T CELL(abcABC):=T 1.889726e+02=T 90.00000=T Traj:=T positionsangstrom=T Step:=T 0=T Bead:=T pbc="F F F"
C      -47.56060000     -34.60130000     -74.02090000
C      -46.32920000     -35.25990000     -73.73520000
C      -45.11690000     -34.61900000     -74.13100000
C      -45.14790000     -33.34180000     -74.65960000
C      -46.36780000     -32.72650000     -74.94730000
C      -47.60640000     -33.28830000     -74.59520000
H      -48.47600000     -35.01560000     -73.66630000
H      -44.20860000     -35.16070000     -74.07050000
H      -46.42500000     -31.65310000     -75.30840000
H      -48.47430000     -32.90550000     -75.06140000
C      -43.86540000     -32.65180000     -75.10820000
H      -44.12700000     -31.65610000     -75.33050000
H      -43.52670000     -33.10710000     -76.01660000
C      -46.52230000     -36.54430000     -72.99740000
H      -47.54510000     -36.50930000     -72.61410000
H      -46.56790000     -37.32470000     -73.71720000
S      -42.61070000     -32.65230000     -73.80750000
S      -45.33320000     -37.00110000     -71.71420000
C      -43.32010000     -31.79900000     -72.28310000
H      -42.55900000     -31.05130000     -71.99280000
H      -44.28430000     -31.33230000     -72.50000000
C      -45.67260000     -35.86160000     -70.26640000
H      -44.73160000     -35.65460000     -69.81340000
H      -46.35860000     -36.31800000     -69.59790000
C      -46.44800000     -34.51230000     -70.66870000
H      -45.97850000     -34.06310000     -71.54050000
H      -47.39760000     -34.77510000     -70.99340000
C      -43.43570000     -32.85580000     -71.11760000
H      -42.43480000     -33.14490000     -70.70670000
H      -43.85100000     -33.80140000     -71.49610000
C      -44.14390000     -32.28470000     -69.91520000
C      -43.39780000     -31.43470000     -69.11300000
C      -45.43280000     -32.52290000     -69.42390000
H      -42.37010000     -31.15860000     -69.39780000
C      -45.68890000     -31.69490000     -68.31400000
C      -46.49190000     -33.46670000     -69.61070000
C      -47.50680000     -33.27990000     -68.71050000
S      -44.28830000     -30.86940000     -67.72020000
S      -47.23350000     -32.06070000     -67.52220000
H      -48.36380000     -33.89180000     -68.56880000
