40
Properties=species:S:1:pos:R:3 #=T CELL(abcABC):=T 1.889726e+02=T 90.00000=T Traj:=T positionsangstrom=T Step:=T 0=T Bead:=T pbc="F F F"
C      -49.26560000     -32.47820000     -70.78920000
C      -47.93440000     -32.04140000     -70.85710000
C      -46.89720000     -32.89770000     -70.39990000
C      -47.16660000     -34.09100000     -69.76210000
C      -48.54810000     -34.43740000     -69.62070000
C      -49.57330000     -33.66800000     -70.16080000
H      -50.09600000     -31.86230000     -71.10540000
H      -45.90440000     -32.66600000     -70.57710000
H      -48.84220000     -35.40420000     -69.22550000
H      -50.66010000     -33.97650000     -70.09160000
C      -46.04180000     -35.14110000     -69.38670000
H      -46.23530000     -35.56690000     -68.47920000
H      -45.14010000     -34.46090000     -69.24950000
C      -47.56000000     -30.75080000     -71.59040000
H      -48.45190000     -30.05260000     -71.52060000
H      -46.74660000     -30.26010000     -71.03890000
S      -45.77760000     -36.53530000     -70.48370000
S      -47.13750000     -30.94640000     -73.43170000
C      -45.62100000     -36.06990000     -72.16390000
H      -46.17140000     -36.89100000     -72.69100000
H      -46.34010000     -35.27210000     -72.33520000
C      -46.41730000     -32.62030000     -73.62580000
H      -46.94760000     -33.16270000     -74.37740000
H      -46.68560000     -33.27080000     -72.71750000
C      -44.94690000     -32.61000000     -73.88390000
H      -44.73930000     -33.57920000     -74.36280000
H      -44.79710000     -31.81940000     -74.66500000
C      -44.14850000     -35.78810000     -72.75020000
H      -44.29450000     -35.46850000     -73.76020000
H      -43.57810000     -36.73350000     -72.81360000
C      -43.27260000     -34.86640000     -71.83110000
C      -42.40890000     -35.29650000     -70.87540000
C      -43.52170000     -33.42360000     -71.79810000
H      -42.22090000     -36.38050000     -70.74310000
C      -42.81380000     -32.90220000     -70.70840000
C      -44.16790000     -32.38250000     -72.60230000
C      -43.79170000     -31.12060000     -72.11080000
S      -41.89360000     -34.02740000     -69.77140000
S      -42.69160000     -31.18240000     -70.65270000
H      -44.18600000     -30.16670000     -72.57580000
