40
Properties=species:S:1:pos:R:3 #=T CELL(abcABC):=T 1.889726e+02=T 90.00000=T Traj:=T positionsangstrom=T Step:=T 0=T Bead:=T pbc="F F F"
C      -45.98060000     -33.64720000     -73.57870000
C      -45.08800000     -34.71730000     -73.46280000
C      -45.35170000     -35.71230000     -72.53650000
C      -46.39010000     -35.55860000     -71.59430000
C      -47.24060000     -34.41250000     -71.72270000
C      -47.03470000     -33.46310000     -72.71040000
H      -45.84480000     -32.90860000     -74.36800000
H      -44.60970000     -36.57980000     -72.60550000
H      -48.08420000     -34.41160000     -71.07510000
H      -47.66900000     -32.61750000     -72.90570000
C      -46.64100000     -36.59390000     -70.56980000
H      -46.19730000     -37.58820000     -70.78450000
H      -47.66720000     -36.92240000     -70.51660000
C      -43.98770000     -34.74370000     -74.42460000
H      -43.41490000     -35.66490000     -74.47380000
H      -44.30840000     -34.58380000     -75.44920000
S      -46.16690000     -35.98330000     -68.83990000
S      -42.75480000     -33.32750000     -74.11420000
C      -44.42370000     -35.39250000     -69.15500000
H      -43.73390000     -36.04790000     -68.66180000
H      -44.21180000     -35.45800000     -70.19060000
C      -42.40030000     -33.70370000     -72.35150000
H      -41.28440000     -33.75880000     -72.32180000
H      -42.95650000     -34.61760000     -72.05380000
C      -42.74020000     -32.50710000     -71.40500000
H      -42.47770000     -32.83630000     -70.35510000
H      -41.96870000     -31.71170000     -71.57080000
C      -44.34650000     -33.91710000     -68.55830000
H      -43.26200000     -33.68370000     -68.45830000
H      -44.63290000     -33.93260000     -67.57250000
C      -45.26010000     -32.87800000     -69.18940000
C      -46.48230000     -32.59440000     -68.63570000
C      -45.12780000     -32.10760000     -70.43850000
H      -46.92410000     -33.05270000     -67.75080000
C      -46.25070000     -31.34300000     -70.74060000
C      -44.11180000     -31.90080000     -71.44410000
C      -44.41440000     -30.90400000     -72.29370000
S      -47.52550000     -31.45180000     -69.60430000
S      -46.01850000     -30.30500000     -72.07640000
H      -43.81660000     -30.44590000     -73.07740000
