40
Properties=species:S:1:pos:R:3 #=T CELL(abcABC):=T 1.889726e+02=T 90.00000=T Traj:=T positionsangstrom=T Step:=T 0=T Bead:=T pbc="F F F"
C      -46.14360000     -33.72100000     -73.50410000
C      -45.18810000     -34.71790000     -73.58340000
C      -45.36330000     -35.79430000     -72.64040000
C      -46.38430000     -35.81090000     -71.69370000
C      -47.44100000     -34.87450000     -71.84300000
C      -47.27150000     -33.79190000     -72.73790000
H      -45.88770000     -32.87030000     -74.09170000
H      -44.50960000     -36.48480000     -72.48250000
H      -48.32500000     -34.90400000     -71.22100000
H      -47.85530000     -32.85170000     -72.72550000
C      -46.50370000     -36.80730000     -70.53930000
H      -45.80880000     -37.72680000     -70.49620000
H      -47.58290000     -37.08340000     -70.43060000
C      -43.99160000     -34.58490000     -74.47080000
H      -43.52220000     -35.53980000     -74.55620000
H      -44.23400000     -34.31550000     -75.50320000
S      -46.22770000     -35.97230000     -68.91780000
S      -42.99760000     -33.21500000     -73.75110000
C      -44.58070000     -35.14810000     -69.05000000
H      -43.67690000     -35.74030000     -68.65970000
H      -44.43600000     -35.03050000     -70.17320000
C      -42.54930000     -33.84250000     -72.12960000
H      -41.58510000     -34.37520000     -72.06650000
H      -43.39360000     -34.51720000     -71.78210000
C      -42.50510000     -32.74610000     -71.04470000
H      -42.48700000     -33.15430000     -70.01080000
H      -41.62940000     -32.09400000     -71.20710000
C      -44.71660000     -33.75320000     -68.39460000
H      -43.75500000     -33.27300000     -68.27850000
H      -45.01030000     -33.79840000     -67.29310000
C      -45.49270000     -32.79240000     -69.22620000
C      -46.82490000     -32.54170000     -68.97070000
C      -45.00150000     -31.99840000     -70.37900000
H      -47.42030000     -33.16220000     -68.24910000
C      -46.00570000     -31.09730000     -70.83140000
C      -43.76360000     -31.89510000     -71.10780000
C      -43.89970000     -30.96450000     -72.08800000
S      -47.56000000     -31.41210000     -70.07620000
S      -45.51210000     -30.15130000     -72.17920000
H      -43.06930000     -30.62090000     -72.63090000
