40
Properties=species:S:1:pos:R:3 #=T CELL(abcABC):=T 1.889726e+02=T 90.00000=T Traj:=T positionsangstrom=T Step:=T 0=T Bead:=T pbc="F F F"
C      -46.13070000     -33.82310000     -73.61030000
C      -45.17390000     -34.81080000     -73.56930000
C      -45.33390000     -35.80880000     -72.56080000
C      -46.40530000     -35.77600000     -71.66910000
C      -47.24680000     -34.66480000     -71.67360000
C      -47.15200000     -33.73990000     -72.66390000
H      -46.13440000     -33.10990000     -74.42180000
H      -44.73820000     -36.73380000     -72.66200000
H      -48.00680000     -34.78280000     -70.94820000
H      -47.89280000     -32.93320000     -72.73900000
C      -46.48500000     -36.76730000     -70.54490000
H      -45.66800000     -37.38120000     -70.57430000
H      -47.37680000     -37.38570000     -70.62960000
C      -43.90100000     -34.75300000     -74.38500000
H      -43.44780000     -35.76620000     -74.32660000
H      -44.08210000     -34.43280000     -75.42270000
S      -46.38320000     -35.88960000     -68.94140000
S      -42.81820000     -33.32080000     -73.80820000
C      -44.64810000     -35.16870000     -69.12710000
H      -43.95600000     -35.73600000     -68.54300000
H      -44.35170000     -35.26170000     -70.12630000
C      -42.63580000     -33.79440000     -71.93870000
H      -41.95270000     -34.57800000     -71.77540000
H      -43.61870000     -34.26810000     -71.75300000
C      -42.50570000     -32.55350000     -71.01800000
H      -42.25530000     -32.86090000     -70.03870000
H      -41.54830000     -31.98620000     -71.21530000
C      -44.67250000     -33.73080000     -68.52280000
H      -43.65370000     -33.40860000     -68.37590000
H      -45.07300000     -33.97540000     -67.50840000
C      -45.47720000     -32.77550000     -69.27170000
C      -46.80480000     -32.65560000     -68.95930000
C      -45.04320000     -32.01690000     -70.42080000
H      -47.38230000     -33.09260000     -68.05100000
C      -46.09530000     -31.18740000     -70.87660000
C      -43.80560000     -31.77890000     -71.09570000
C      -43.95450000     -30.78660000     -72.00800000
S      -47.57220000     -31.45790000     -70.05140000
S      -45.57680000     -30.17450000     -72.24590000
H      -43.21980000     -30.37350000     -72.64410000
