40
Properties=species:S:1:pos:R:3 #=T CELL(abcABC):=T 1.889726e+02=T 90.00000=T Traj:=T positionsangstrom=T Step:=T 0=T Bead:=T pbc="F F F"
C      -46.52280000     -33.74330000     -73.71770000
C      -45.39960000     -34.61990000     -73.61410000
C      -45.39590000     -35.47620000     -72.53500000
C      -46.50290000     -35.69770000     -71.66790000
C      -47.61350000     -34.87050000     -71.78260000
C      -47.59850000     -33.88440000     -72.83230000
H      -46.56380000     -32.95200000     -74.53480000
H      -44.50410000     -36.08460000     -72.45830000
H      -48.43650000     -34.95600000     -71.03620000
H      -48.51570000     -33.35290000     -72.93940000
C      -46.34710000     -36.78430000     -70.63520000
H      -45.54540000     -37.43730000     -70.98680000
H      -47.17690000     -37.47090000     -70.67840000
C      -44.11090000     -34.49840000     -74.42190000
H      -43.55190000     -35.49170000     -74.37960000
H      -44.28300000     -34.23640000     -75.48030000
S      -46.17400000     -36.11900000     -68.94270000
S      -42.74370000     -33.33290000     -73.87510000
C      -44.52560000     -35.22120000     -68.99120000
H      -43.89180000     -35.82440000     -68.38070000
H      -44.13200000     -35.25920000     -69.99820000
C      -42.39910000     -33.83000000     -72.14320000
H      -41.32860000     -34.15780000     -72.16860000
H      -43.10290000     -34.57580000     -72.00350000
C      -42.50540000     -32.70080000     -71.04560000
H      -42.57290000     -33.24240000     -70.06700000
H      -41.63900000     -32.09360000     -71.14910000
C      -44.57690000     -33.79900000     -68.44780000
H      -43.54850000     -33.48040000     -68.60590000
H      -44.83290000     -33.79790000     -67.41660000
C      -45.45670000     -32.90640000     -69.32070000
C      -46.74250000     -32.58020000     -68.89910000
C      -45.05300000     -32.04910000     -70.41960000
H      -47.29670000     -33.10270000     -68.17430000
C      -46.02740000     -31.21620000     -70.85090000
C      -43.82300000     -31.84000000     -71.11230000
C      -43.92560000     -30.82000000     -72.00710000
S      -47.53330000     -31.34490000     -69.89720000
S      -45.51120000     -30.06620000     -72.08790000
H      -43.21360000     -30.55710000     -72.76390000
