40
Properties=species:S:1:pos:R:3 #=T CELL(abcABC):=T 1.889726e+02=T 90.00000=T Traj:=T positionsangstrom=T Step:=T 0=T Bead:=T pbc="F F F"
C      -46.04840000     -33.70600000     -73.61070000
C      -45.04900000     -34.72480000     -73.44290000
C      -45.34110000     -35.73010000     -72.53810000
C      -46.49980000     -35.72710000     -71.70900000
C      -47.47640000     -34.75530000     -72.01020000
C      -47.25560000     -33.70060000     -72.90960000
H      -45.73430000     -32.87060000     -74.29780000
H      -44.63060000     -36.48910000     -72.25800000
H      -48.33220000     -34.63200000     -71.32860000
H      -48.00000000     -32.99300000     -73.21750000
C      -46.68300000     -36.75730000     -70.62180000
H      -45.87730000     -37.54810000     -70.74440000
H      -47.63320000     -37.32540000     -70.81620000
C      -43.82710000     -34.78160000     -74.27150000
H      -43.32470000     -35.73020000     -74.30910000
H      -44.00510000     -34.45300000     -75.26620000
S      -46.52430000     -36.01800000     -68.87170000
S      -42.59820000     -33.45880000     -73.71760000
C      -44.80730000     -35.32110000     -68.92690000
H      -44.16650000     -35.88990000     -68.16810000
H      -44.35600000     -35.50160000     -69.93570000
C      -42.34770000     -33.75770000     -71.84260000
H      -41.26940000     -34.07700000     -71.72320000
H      -43.06500000     -34.48260000     -71.54460000
C      -42.45120000     -32.45520000     -71.05230000
H      -42.26860000     -32.68030000     -69.96980000
H      -41.67540000     -31.73770000     -71.36730000
C      -44.63740000     -33.83180000     -68.51420000
H      -43.53550000     -33.63030000     -68.67330000
H      -44.92460000     -33.71040000     -67.49800000
C      -45.46230000     -32.79200000     -69.30520000
C      -46.81170000     -32.55630000     -69.02590000
C      -45.01560000     -31.97690000     -70.42470000
H      -47.36540000     -32.88100000     -68.08460000
C      -46.05120000     -31.13310000     -70.85660000
C      -43.82940000     -31.77680000     -71.24050000
C      -43.99050000     -30.82320000     -72.19270000
S      -47.54530000     -31.43280000     -70.04670000
S      -45.66840000     -30.06960000     -72.18090000
H      -43.29910000     -30.49080000     -72.96370000
