40
Properties=species:S:1:pos:R:3 #=T CELL(abcABC):=T 1.889726e+02=T 90.00000=T Traj:=T positionsangstrom=T Step:=T 0=T Bead:=T pbc="F F F"
C      -46.19860000     -33.52580000     -73.49880000
C      -45.25440000     -34.53210000     -73.51880000
C      -45.37000000     -35.60810000     -72.62600000
C      -46.48380000     -35.66570000     -71.71800000
C      -47.39340000     -34.60920000     -71.71110000
C      -47.17340000     -33.52070000     -72.56900000
H      -46.04850000     -32.71130000     -74.20200000
H      -44.59090000     -36.35720000     -72.61760000
H      -48.16100000     -34.55140000     -70.94370000
H      -47.89150000     -32.77480000     -72.63580000
C      -46.51820000     -36.72950000     -70.62140000
H      -45.78690000     -37.50730000     -70.74620000
H      -47.57810000     -37.11810000     -70.59130000
C      -44.02830000     -34.60680000     -74.37590000
H      -43.58950000     -35.63860000     -74.54330000
H      -44.40840000     -34.25750000     -75.32670000
S      -46.18240000     -35.96320000     -69.00380000
S      -42.77480000     -33.36220000     -73.99220000
C      -44.50150000     -35.30540000     -69.21530000
H      -43.71830000     -35.91300000     -68.65840000
H      -44.28470000     -35.36230000     -70.33080000
C      -42.49640000     -33.64030000     -72.17210000
H      -41.43260000     -34.03550000     -72.06180000
H      -43.20140000     -34.37640000     -71.94330000
C      -42.62370000     -32.42330000     -71.36780000
H      -42.27990000     -32.62070000     -70.32990000
H      -41.89200000     -31.66520000     -71.65170000
C      -44.25790000     -33.93560000     -68.64350000
H      -43.16500000     -33.72210000     -68.89910000
H      -44.35150000     -34.05100000     -67.51750000
C      -45.17130000     -32.86710000     -69.20130000
C      -46.47470000     -32.75350000     -68.76550000
C      -45.00530000     -31.95730000     -70.32550000
H      -46.96240000     -33.33350000     -67.94400000
C      -46.18390000     -31.26490000     -70.67040000
C      -43.99740000     -31.83430000     -71.31850000
C      -44.31260000     -30.95770000     -72.29940000
S      -47.52440000     -31.57180000     -69.57420000
S      -45.91930000     -30.31070000     -72.14020000
H      -43.72680000     -30.64160000     -73.14860000
