40
Properties=species:S:1:pos:R:3 #=T CELL(abcABC):=T 1.889726e+02=T 90.00000=T Traj:=T positionsangstrom=T Step:=T 0=T Bead:=T pbc="F F F"
C      -45.88040000     -33.70500000     -73.64100000
C      -45.01270000     -34.74420000     -73.25030000
C      -45.47180000     -35.71710000     -72.32850000
C      -46.65030000     -35.54220000     -71.65120000
C      -47.50620000     -34.52460000     -72.13140000
C      -47.18060000     -33.55910000     -73.06290000
H      -45.51320000     -32.99860000     -74.35720000
H      -44.74390000     -36.46990000     -72.00620000
H      -48.42890000     -34.35790000     -71.68310000
H      -47.86950000     -32.74790000     -73.30710000
C      -47.09110000     -36.48090000     -70.50550000
H      -46.75100000     -37.52030000     -70.73630000
H      -48.20740000     -36.60110000     -70.41090000
C      -43.67230000     -34.98190000     -73.92260000
H      -43.11350000     -35.86580000     -73.78010000
H      -43.83610000     -34.83200000     -74.98550000
S      -46.56660000     -35.94370000     -68.85130000
S      -42.46080000     -33.65250000     -73.38050000
C      -44.79590000     -35.34000000     -69.05280000
H      -44.06240000     -36.03860000     -68.51690000
H      -44.62660000     -35.51370000     -70.12250000
C      -42.32330000     -33.77990000     -71.64960000
H      -41.36190000     -34.20450000     -71.44810000
H      -42.96870000     -34.59260000     -71.27480000
C      -42.51760000     -32.38190000     -70.98390000
H      -42.24630000     -32.53070000     -69.96390000
H      -41.76110000     -31.68200000     -71.35420000
C      -44.60290000     -33.87480000     -68.77750000
H      -43.59650000     -33.63130000     -68.99660000
H      -44.60460000     -33.63300000     -67.69720000
C      -45.53170000     -32.92960000     -69.52940000
C      -46.83780000     -32.69710000     -69.17030000
C      -45.08850000     -32.07320000     -70.62920000
H      -47.42320000     -33.23530000     -68.48320000
C      -46.10510000     -31.28880000     -71.10470000
C      -43.79720000     -31.68400000     -71.25040000
C      -43.91860000     -30.71600000     -72.19060000
S      -47.57670000     -31.47420000     -70.15930000
S      -45.55910000     -30.02800000     -72.30770000
H      -43.09050000     -30.29390000     -72.78750000
