40
Properties=species:S:1:pos:R:3 #=T CELL(abcABC):=T 1.889726e+02=T 90.00000=T Traj:=T positionsangstrom=T Step:=T 0=T Bead:=T pbc="F F F"
C      -45.57930000     -34.49410000     -73.81970000
C      -44.67380000     -35.34120000     -73.13380000
C      -45.15940000     -36.05430000     -72.03410000
C      -46.39230000     -35.78120000     -71.42500000
C      -47.26910000     -34.83560000     -72.04210000
C      -46.84890000     -34.27990000     -73.30000000
H      -45.34160000     -33.92750000     -74.69530000
H      -44.55120000     -36.88130000     -71.54570000
H      -48.22350000     -34.59470000     -71.49600000
H      -47.53160000     -33.68440000     -73.91370000
C      -46.65630000     -36.53090000     -70.09440000
H      -45.91730000     -37.38860000     -70.03560000
H      -47.67000000     -36.94810000     -70.08710000
C      -43.29070000     -35.55570000     -73.63800000
H      -42.82840000     -36.50570000     -73.29440000
H      -43.24170000     -35.43590000     -74.72960000
S      -46.65630000     -35.49140000     -68.57530000
S      -42.25690000     -34.04760000     -73.22070000
C      -44.96140000     -34.60030000     -68.64870000
H      -44.28360000     -34.97240000     -67.84110000
H      -44.47350000     -34.84280000     -69.59900000
C      -42.37880000     -33.83700000     -71.41610000
H      -41.51460000     -34.19890000     -70.88110000
H      -43.18770000     -34.51040000     -71.06130000
C      -42.69410000     -32.39800000     -70.83870000
H      -42.68260000     -32.48570000     -69.76460000
H      -41.88540000     -31.72360000     -71.17560000
C      -45.23580000     -33.15810000     -68.34260000
H      -44.28470000     -32.59050000     -68.13290000
H      -45.87670000     -33.09420000     -67.46410000
C      -45.91780000     -32.31950000     -69.46340000
C      -47.23450000     -31.88240000     -69.32030000
C      -45.31600000     -31.83060000     -70.67800000
H      -47.87720000     -32.01960000     -68.45830000
C      -46.17500000     -31.05360000     -71.39350000
C      -44.00160000     -31.84710000     -71.40120000
C      -44.02820000     -31.09230000     -72.52950000
S      -47.75940000     -30.81420000     -70.63040000
S      -45.54450000     -30.41980000     -72.90730000
H      -43.15590000     -30.91490000     -73.18080000
