40
Properties=species:S:1:pos:R:3 #=T CELL(abcABC):=T 1.889726e+02=T 90.00000=T Traj:=T positionsangstrom=T Step:=T 0=T Bead:=T pbc="F F F"
C      -45.57390000     -34.44180000     -73.66530000
C      -44.65180000     -35.22440000     -73.00560000
C      -45.01270000     -35.85790000     -71.77950000
C      -46.33270000     -35.82860000     -71.34540000
C      -47.25670000     -34.90670000     -71.93010000
C      -46.89700000     -34.33150000     -73.20730000
H      -45.32090000     -34.01430000     -74.59690000
H      -44.36280000     -36.63600000     -71.29410000
H      -48.21010000     -34.81220000     -71.47640000
H      -47.58370000     -33.69270000     -73.77910000
C      -46.83050000     -36.54790000     -70.10370000
H      -46.29190000     -37.47080000     -69.91250000
H      -47.84340000     -36.91410000     -70.13890000
C      -43.29830000     -35.36640000     -73.61700000
H      -42.91800000     -36.36820000     -73.38510000
H      -43.26640000     -35.44020000     -74.67010000
S      -46.74820000     -35.33220000     -68.62450000
S      -42.15940000     -34.00540000     -73.08410000
C      -45.07100000     -34.62430000     -68.67210000
H      -44.44050000     -35.14420000     -67.87380000
H      -44.55620000     -34.88230000     -69.54170000
C      -42.47400000     -33.96420000     -71.22200000
H      -41.51290000     -34.20760000     -70.69840000
H      -43.26060000     -34.64700000     -71.02090000
C      -42.73200000     -32.52550000     -70.91470000
H      -42.71150000     -32.31090000     -69.82770000
H      -41.82000000     -32.01860000     -71.33810000
C      -45.11460000     -33.10030000     -68.48430000
H      -44.01310000     -32.86220000     -68.36150000
H      -45.54970000     -33.03000000     -67.54050000
C      -45.80200000     -32.28100000     -69.55130000
C      -47.12770000     -31.95000000     -69.38530000
C      -45.37750000     -31.94570000     -70.88810000
H      -47.59320000     -32.02200000     -68.37480000
C      -46.22320000     -31.10200000     -71.58970000
C      -43.96270000     -31.89350000     -71.54110000
C      -43.94100000     -31.03270000     -72.57560000
S      -47.83620000     -31.06740000     -70.72790000
S      -45.53130000     -30.33740000     -72.92600000
H      -43.02140000     -30.82760000     -73.09830000
