40
Properties=species:S:1:pos:R:3 #=T CELL(abcABC):=T 1.889726e+02=T 90.00000=T Traj:=T positionsangstrom=T Step:=T 0=T Bead:=T pbc="F F F"
C      -45.58460000     -34.41880000     -73.76660000
C      -44.69940000     -35.33990000     -73.15400000
C      -45.02320000     -36.03880000     -72.00530000
C      -46.31020000     -35.81520000     -71.40770000
C      -47.19430000     -34.92220000     -72.00360000
C      -46.79750000     -34.22720000     -73.14130000
H      -45.25460000     -33.84360000     -74.65840000
H      -44.40200000     -36.74340000     -71.51690000
H      -48.21130000     -34.69980000     -71.56030000
H      -47.51200000     -33.57880000     -73.59670000
C      -46.78270000     -36.57010000     -70.18790000
H      -46.16120000     -37.44130000     -70.01030000
H      -47.83260000     -36.83830000     -70.23520000
C      -43.30690000     -35.47830000     -73.75540000
H      -42.78090000     -36.33970000     -73.28310000
H      -43.40030000     -35.44810000     -74.85860000
S      -46.65020000     -35.58740000     -68.58780000
S      -42.39490000     -33.95550000     -73.37130000
C      -45.11990000     -34.56640000     -68.78650000
H      -44.28530000     -35.09690000     -68.42140000
H      -45.06430000     -34.47570000     -69.90180000
C      -42.47270000     -33.89100000     -71.57140000
H      -41.51500000     -34.36190000     -71.29960000
H      -43.23940000     -34.62340000     -71.25910000
C      -42.72620000     -32.52890000     -70.85690000
H      -42.73890000     -32.67490000     -69.75380000
H      -41.91560000     -31.81110000     -71.01000000
C      -45.13970000     -33.11380000     -68.33310000
H      -44.12500000     -32.84600000     -68.21490000
H      -45.61970000     -33.03200000     -67.34770000
C      -45.79680000     -32.21960000     -69.33050000
C      -47.13480000     -31.77110000     -69.17200000
C      -45.18870000     -31.70120000     -70.53080000
H      -47.82860000     -32.19610000     -68.51800000
C      -46.16870000     -30.94850000     -71.28950000
C      -43.95610000     -31.82110000     -71.28950000
C      -44.02510000     -31.26760000     -72.56800000
S      -47.71420000     -30.89730000     -70.61480000
S      -45.57940000     -30.40480000     -72.85030000
H      -43.36280000     -31.38280000     -73.42880000
