40
Properties=species:S:1:pos:R:3 #=T CELL(abcABC):=T 1.889726e+02=T 90.00000=T Traj:=T positionsangstrom=T Step:=T 0=T Bead:=T pbc="F F F"
C      -45.84530000     -34.08950000     -73.73200000
C      -44.84490000     -34.97450000     -73.28060000
C      -45.22290000     -35.73470000     -72.16990000
C      -46.41450000     -35.57160000     -71.47160000
C      -47.36580000     -34.70930000     -72.01250000
C      -47.03570000     -33.88920000     -73.07270000
H      -45.50550000     -33.39240000     -74.50520000
H      -44.49970000     -36.47090000     -71.84430000
H      -48.39420000     -34.37860000     -71.52120000
H      -47.69810000     -33.09140000     -73.50410000
C      -46.72950000     -36.49690000     -70.31960000
H      -45.96220000     -37.26230000     -70.12840000
H      -47.66600000     -37.07080000     -70.57570000
C      -43.52820000     -35.14230000     -73.95960000
H      -43.13610000     -36.17140000     -73.94820000
H      -43.74530000     -34.94330000     -75.03660000
S      -46.85110000     -35.55800000     -68.63420000
S      -42.14410000     -34.08060000     -73.37410000
C      -45.05990000     -34.90210000     -68.62980000
H      -44.56820000     -35.36040000     -67.79670000
H      -44.56210000     -35.18660000     -69.55160000
C      -42.54090000     -33.99410000     -71.55850000
H      -41.78470000     -34.52970000     -71.01630000
H      -43.55320000     -34.40060000     -71.56350000
C      -42.58460000     -32.57820000     -70.95110000
H      -42.44830000     -32.67440000     -69.87280000
H      -41.68230000     -32.00330000     -71.23570000
C      -44.99790000     -33.34150000     -68.39930000
H      -43.93460000     -33.03200000     -68.48810000
H      -45.40050000     -33.13850000     -67.38630000
C      -45.70410000     -32.48280000     -69.40700000
C      -47.04120000     -32.12750000     -69.18710000
C      -45.10720000     -31.87810000     -70.56820000
H      -47.75680000     -32.62930000     -68.47000000
C      -46.06120000     -31.09420000     -71.21680000
C      -43.86080000     -31.83180000     -71.29000000
C      -43.99030000     -31.16240000     -72.49720000
S      -47.58150000     -31.00860000     -70.41990000
S      -45.56370000     -30.45920000     -72.75580000
H      -43.21880000     -30.99360000     -73.24020000
