40
Properties=species:S:1:pos:R:3 #=T CELL(abcABC):=T 1.889726e+02=T 90.00000=T Traj:=T positionsangstrom=T Step:=T 0=T Bead:=T pbc="F F F"
C      -45.81450000     -34.00810000     -73.76050000
C      -44.89510000     -34.90460000     -73.25330000
C      -45.28210000     -35.64730000     -72.13360000
C      -46.52940000     -35.51470000     -71.55580000
C      -47.34820000     -34.51690000     -72.05110000
C      -47.04880000     -33.77080000     -73.12320000
H      -45.82560000     -33.55550000     -74.75900000
H      -44.65770000     -36.39940000     -71.75590000
H      -48.42410000     -34.47550000     -71.50590000
H      -47.65940000     -32.97140000     -73.62780000
C      -46.97410000     -36.32830000     -70.40830000
H      -46.51580000     -37.31080000     -70.39050000
H      -48.02710000     -36.53070000     -70.46390000
C      -43.59310000     -35.18510000     -73.86280000
H      -43.29960000     -36.23890000     -73.65170000
H      -43.45530000     -35.07580000     -74.92280000
S      -46.73460000     -35.61540000     -68.74400000
S      -42.29310000     -34.00280000     -73.27640000
C      -44.99880000     -34.97950000     -68.68750000
H      -44.51290000     -35.56400000     -67.85230000
H      -44.46420000     -35.32510000     -69.57120000
C      -42.26390000     -33.95050000     -71.48220000
H      -41.33200000     -34.38970000     -71.05670000
H      -43.01370000     -34.67850000     -71.12280000
C      -42.57220000     -32.53740000     -70.95930000
H      -42.47210000     -32.47960000     -69.81930000
H      -41.83000000     -31.87950000     -71.38690000
C      -44.83640000     -33.44760000     -68.52460000
H      -43.74850000     -33.19550000     -68.56580000
H      -45.03720000     -33.10400000     -67.54480000
C      -45.59130000     -32.63180000     -69.48820000
C      -46.91150000     -32.28010000     -69.12580000
C      -45.14770000     -31.99340000     -70.66750000
H      -47.39330000     -32.73150000     -68.28330000
C      -46.13370000     -31.19180000     -71.30090000
C      -43.90550000     -31.93150000     -71.41090000
C      -43.96110000     -31.05280000     -72.47610000
S      -47.61000000     -31.21850000     -70.31380000
S      -45.57240000     -30.31650000     -72.65190000
H      -43.14840000     -30.86720000     -73.16750000
