40
Properties=species:S:1:pos:R:3 #=T CELL(abcABC):=T 1.889726e+02=T 90.00000=T Traj:=T positionsangstrom=T Step:=T 0=T Bead:=T pbc="F F F"
C      -45.58040000     -34.31270000     -73.65340000
C      -44.67430000     -35.21260000     -73.04040000
C      -45.06990000     -35.93590000     -71.92550000
C      -46.33390000     -35.77650000     -71.28560000
C      -47.23410000     -34.91710000     -71.93340000
C      -46.86830000     -34.19920000     -73.12290000
H      -45.27890000     -33.78280000     -74.60340000
H      -44.35510000     -36.51130000     -71.43540000
H      -48.17920000     -34.77540000     -71.51310000
H      -47.60960000     -33.50110000     -73.45930000
C      -46.64490000     -36.47610000     -69.95610000
H      -45.73070000     -36.88190000     -69.55510000
H      -47.55010000     -37.17350000     -69.95620000
C      -43.24090000     -35.52290000     -73.52340000
H      -42.83140000     -36.34310000     -72.92450000
H      -43.16730000     -35.59850000     -74.60240000
S      -46.92170000     -35.24520000     -68.56090000
S      -42.06990000     -34.11290000     -73.12580000
C      -45.22950000     -34.56990000     -68.46910000
H      -44.82560000     -34.88970000     -67.50730000
H      -44.66930000     -34.97250000     -69.35520000
C      -42.34460000     -33.72990000     -71.18970000
H      -41.50760000     -34.19680000     -70.59970000
H      -43.16900000     -34.39610000     -70.95260000
C      -42.62540000     -32.25550000     -70.88100000
H      -42.46010000     -32.14640000     -69.77010000
H      -41.76290000     -31.74300000     -71.26140000
C      -45.10970000     -33.02560000     -68.38720000
H      -44.09190000     -32.68190000     -68.33560000
H      -45.52880000     -32.56240000     -67.45570000
C      -45.78720000     -32.30910000     -69.56230000
C      -47.16750000     -32.23010000     -69.55920000
C      -45.22110000     -31.69920000     -70.74080000
H      -47.82080000     -32.70870000     -68.76870000
C      -46.17730000     -31.11090000     -71.54510000
C      -43.92940000     -31.67200000     -71.40640000
C      -44.00080000     -31.01180000     -72.61420000
S      -47.83390000     -31.25730000     -70.94910000
S      -45.63210000     -30.53360000     -73.03340000
H      -43.17660000     -30.90890000     -73.25230000
