40
Properties=species:S:1:pos:R:3 #=T CELL(abcABC):=T 1.889726e+02=T 90.00000=T Traj:=T positionsangstrom=T Step:=T 0=T Bead:=T pbc="F F F"
C      -49.06110000     -32.42760000     -70.51920000
C      -47.72850000     -32.01150000     -70.68800000
C      -46.71810000     -32.91900000     -70.36410000
C      -46.95350000     -34.21190000     -69.88190000
C      -48.29040000     -34.55520000     -69.64270000
C      -49.33340000     -33.71060000     -69.97330000
H      -49.88240000     -31.68460000     -70.71920000
H      -45.65540000     -32.51480000     -70.29400000
H      -48.50530000     -35.56410000     -69.26910000
H      -50.32050000     -33.95100000     -69.78590000
C      -45.81580000     -35.08540000     -69.48600000
H      -45.94750000     -35.44570000     -68.42060000
H      -44.87780000     -34.62860000     -69.45870000
C      -47.42490000     -30.67310000     -71.32230000
H      -48.23790000     -29.98990000     -71.15810000
H      -46.50550000     -30.21230000     -70.95640000
S      -45.81620000     -36.67800000     -70.54620000
S      -47.36750000     -30.79600000     -73.23610000
C      -45.66290000     -35.96610000     -72.34440000
H      -46.28700000     -36.56750000     -73.05370000
H      -46.05600000     -34.94230000     -72.22000000
C      -46.54160000     -32.34910000     -73.72010000
H      -46.96200000     -32.62730000     -74.67420000
H      -46.87130000     -33.11640000     -73.06650000
C      -44.98780000     -32.30400000     -73.82250000
H      -44.66330000     -33.13390000     -74.49560000
H      -44.83580000     -31.30690000     -74.31760000
C      -44.24140000     -35.83170000     -72.87400000
H      -44.32280000     -35.42910000     -73.88120000
H      -43.78770000     -36.78660000     -72.97390000
C      -43.35630000     -34.91800000     -72.05790000
C      -42.51560000     -35.43620000     -71.09680000
C      -43.51560000     -33.38140000     -71.96280000
H      -42.21670000     -36.48910000     -71.09060000
C      -42.73580000     -32.97510000     -70.87180000
C      -44.13510000     -32.30650000     -72.58460000
C      -43.97260000     -31.05540000     -71.88140000
S      -41.84470000     -34.20560000     -70.02410000
S      -42.93860000     -31.26550000     -70.47620000
H      -44.44060000     -30.11680000     -72.19840000
