40
Properties=species:S:1:pos:R:3 #=T CELL(abcABC):=T 1.889726e+02=T 90.00000=T Traj:=T positionsangstrom=T Step:=T 0=T Bead:=T pbc="F F F"
C      -44.94960000     -34.91200000     -73.73560000
C      -44.01970000     -35.31720000     -72.79300000
C      -44.52580000     -35.86640000     -71.59550000
C      -45.85730000     -35.96150000     -71.30060000
C      -46.78450000     -35.45990000     -72.23530000
C      -46.31620000     -34.93070000     -73.44360000
H      -44.63090000     -34.33680000     -74.65260000
H      -43.77230000     -36.49260000     -70.93280000
H      -47.86040000     -35.43200000     -71.96390000
H      -46.97050000     -34.45400000     -74.15670000
C      -46.40740000     -36.46510000     -69.96720000
H      -45.66590000     -37.05610000     -69.41510000
H      -47.09480000     -37.27550000     -70.02920000
C      -42.59250000     -35.27570000     -73.00360000
H      -42.10550000     -36.15330000     -72.73790000
H      -42.41590000     -35.05160000     -74.02040000
S      -47.12910000     -35.22170000     -68.85840000
S      -41.67820000     -33.78340000     -72.31670000
C      -45.65540000     -34.14180000     -68.50280000
H      -45.20450000     -34.36810000     -67.58130000
H      -44.94490000     -34.39290000     -69.29790000
C      -42.51970000     -33.51590000     -70.63450000
H      -41.79530000     -33.64450000     -69.80460000
H      -43.32200000     -34.18430000     -70.46720000
C      -43.07450000     -32.13610000     -70.40460000
H      -43.39500000     -32.12340000     -69.36430000
H      -42.24850000     -31.42420000     -70.42980000
C      -45.86420000     -32.57710000     -68.40240000
H      -44.89680000     -32.17410000     -68.04040000
H      -46.53970000     -32.46930000     -67.46320000
C      -46.37760000     -32.00660000     -69.67170000
C      -47.69500000     -31.67080000     -69.87030000
C      -45.63180000     -31.74000000     -70.88070000
H      -48.49480000     -31.54190000     -69.11090000
C      -46.40030000     -31.25800000     -71.89040000
C      -44.21910000     -31.78590000     -71.29390000
C      -44.07190000     -31.35800000     -72.60040000
S      -48.10550000     -31.08590000     -71.41970000
S      -45.62260000     -30.96720000     -73.36980000
H      -43.18030000     -31.18490000     -73.22960000
