40
Properties=species:S:1:pos:R:3 #=T CELL(abcABC):=T 1.889726e+02=T 90.00000=T Traj:=T positionsangstrom=T Step:=T 0=T Bead:=T pbc="F F F"
C      -49.05870000     -33.34950000     -73.73460000
C      -48.34420000     -34.43940000     -73.11810000
C      -48.28570000     -34.54360000     -71.72560000
C      -48.87800000     -33.48970000     -70.97890000
C      -49.49600000     -32.36020000     -71.60100000
C      -49.71070000     -32.39380000     -73.00150000
H      -49.07800000     -33.23950000     -74.83810000
H      -47.76080000     -35.37270000     -71.26460000
H      -49.92790000     -31.52050000     -71.00000000
H      -50.10570000     -31.48370000     -73.35710000
C      -48.84210000     -33.50860000     -69.51880000
H      -48.53990000     -34.43550000     -69.04410000
H      -49.80320000     -33.16390000     -69.15200000
C      -47.67170000     -35.43630000     -73.98650000
H      -48.33740000     -36.29520000     -74.24130000
H      -47.42880000     -34.93620000     -74.90310000
S      -47.77140000     -32.06530000     -68.85550000
S      -46.16530000     -36.36740000     -73.46750000
C      -46.22660000     -32.12010000     -69.82250000
H      -46.45100000     -32.31240000     -70.85860000
H      -45.94920000     -31.09950000     -69.73630000
C      -45.08550000     -34.97150000     -73.01990000
H      -45.64390000     -34.14760000     -72.49710000
H      -44.71740000     -34.54500000     -73.96150000
C      -43.82370000     -35.31950000     -72.06120000
H      -44.22680000     -35.68300000     -71.18350000
H      -43.24740000     -36.03050000     -72.60560000
C      -45.22380000     -33.16200000     -69.18790000
H      -45.58710000     -34.07040000     -69.55210000
H      -45.26250000     -33.19360000     -68.13170000
C      -43.79370000     -32.80880000     -69.57470000
C      -43.10090000     -31.90120000     -68.80870000
C      -42.90440000     -33.17860000     -70.71770000
H      -43.67650000     -31.51380000     -67.95910000
C      -41.74580000     -32.39130000     -70.76420000
C      -42.91430000     -34.12520000     -71.89460000
C      -41.81200000     -33.91300000     -72.70410000
S      -41.56910000     -31.30600000     -69.44500000
S      -40.76990000     -32.62450000     -72.22580000
H      -41.64320000     -34.54390000     -73.50560000
