40
Properties=species:S:1:pos:R:3 #=T CELL(abcABC):=T 1.889726e+02=T 90.00000=T Traj:=T positionsangstrom=T Step:=T 0=T Bead:=T pbc="F F F"
C      -49.17720000     -33.15530000     -71.90480000
C      -48.66190000     -34.39550000     -72.25070000
C      -47.79460000     -34.43470000     -73.39790000
C      -47.27750000     -33.31550000     -74.00110000
C      -47.85470000     -32.03910000     -73.64530000
C      -48.78570000     -31.98850000     -72.59870000
H      -50.05090000     -33.09070000     -71.18840000
H      -47.37940000     -35.36060000     -73.68240000
H      -47.33860000     -31.14370000     -74.03970000
H      -49.23230000     -31.07110000     -72.22940000
C      -46.34840000     -33.38060000     -75.18150000
H      -46.43820000     -32.47120000     -75.77120000
H      -46.83080000     -34.14360000     -75.84730000
C      -48.96530000     -35.60550000     -71.45820000
H      -49.83890000     -35.42020000     -70.82140000
H      -49.40460000     -36.43050000     -72.10360000
S      -44.55610000     -33.78710000     -74.85890000
S      -47.52970000     -36.31320000     -70.49290000
C      -44.15980000     -32.87760000     -73.33460000
H      -43.93230000     -31.83020000     -73.56900000
H      -45.09690000     -32.62130000     -72.89570000
C      -46.58900000     -34.87980000     -69.73220000
H      -46.60520000     -35.09860000     -68.62920000
H      -47.03210000     -33.87860000     -69.98540000
C      -45.12540000     -34.90410000     -70.03800000
H      -44.72460000     -35.87320000     -69.62820000
H      -44.91170000     -34.84020000     -71.10490000
C      -43.13120000     -33.65170000     -72.52360000
H      -42.17430000     -33.67620000     -73.07390000
H      -43.54920000     -34.62980000     -72.40120000
C      -42.73800000     -32.93680000     -71.21170000
C      -41.73990000     -31.97710000     -71.19760000
C      -43.41270000     -32.94400000     -69.95870000
H      -41.13180000     -31.83080000     -72.05040000
C      -42.99190000     -31.93370000     -69.11630000
C      -44.43800000     -33.75000000     -69.32010000
C      -44.77020000     -33.29030000     -68.06810000
S      -41.76660000     -31.02890000     -69.78170000
S      -43.73110000     -31.97270000     -67.56890000
H      -45.33690000     -33.94120000     -67.46130000
