40
Properties=species:S:1:pos:R:3 #=T CELL(abcABC):=T 1.889726e+02=T 90.00000=T Traj:=T positionsangstrom=T Step:=T 0=T Bead:=T pbc="F F F"
C      -45.15190000     -34.57090000     -73.67900000
C      -44.32510000     -35.22860000     -72.84710000
C      -44.82640000     -35.83290000     -71.64840000
C      -46.23120000     -35.67370000     -71.31960000
C      -47.08020000     -34.88690000     -72.10350000
C      -46.49110000     -34.35880000     -73.28740000
H      -44.79650000     -34.12570000     -74.55900000
H      -44.13510000     -36.36400000     -71.02110000
H      -48.09140000     -34.93330000     -71.82440000
H      -47.18350000     -33.76640000     -73.87430000
C      -46.67810000     -36.41230000     -70.01860000
H      -46.01410000     -37.19360000     -69.81780000
H      -47.57560000     -36.97780000     -70.03620000
C      -42.82320000     -35.37330000     -73.10180000
H      -42.35950000     -36.12060000     -72.63040000
H      -42.65630000     -35.45440000     -74.16540000
S      -46.76500000     -35.37420000     -68.47930000
S      -41.93500000     -33.77590000     -72.73150000
C      -45.24850000     -34.39780000     -68.30640000
H      -44.82010000     -34.50700000     -67.33220000
H      -44.53840000     -34.76650000     -69.05370000
C      -42.35170000     -33.50520000     -70.93180000
H      -41.48290000     -33.64260000     -70.29660000
H      -43.18440000     -34.14710000     -70.55580000
C      -42.86590000     -32.00650000     -70.56650000
H      -43.02090000     -31.91170000     -69.50060000
H      -42.01620000     -31.33280000     -70.72360000
C      -45.56340000     -32.87940000     -68.48890000
H      -44.58460000     -32.32030000     -68.48800000
H      -46.07460000     -32.44420000     -67.62350000
C      -46.22040000     -32.35030000     -69.71490000
C      -47.56780000     -32.17570000     -69.85080000
C      -45.52970000     -31.80250000     -70.91990000
H      -48.29500000     -32.64040000     -69.11550000
C      -46.42930000     -31.41590000     -71.90350000
C      -44.15740000     -31.65770000     -71.27320000
C      -44.03030000     -31.14830000     -72.55460000
S      -48.10490000     -31.31890000     -71.24400000
S      -45.51950000     -30.86370000     -73.36930000
H      -43.15680000     -30.74270000     -73.09240000
