40
Properties=species:S:1:pos:R:3 #=T CELL(abcABC):=T 1.889726e+02=T 90.00000=T Traj:=T positionsangstrom=T Step:=T 0=T Bead:=T pbc="F F F"
C      -44.63940000     -34.99830000     -73.58710000
C      -43.99390000     -35.58580000     -72.45870000
C      -44.68060000     -36.04090000     -71.32190000
C      -46.08810000     -35.85790000     -71.36080000
C      -46.79010000     -35.25810000     -72.47050000
C      -46.02610000     -34.85440000     -73.59270000
H      -43.89500000     -34.69920000     -74.38150000
H      -44.09020000     -36.46730000     -70.43610000
H      -47.87640000     -35.17360000     -72.45360000
H      -46.44520000     -34.41130000     -74.46980000
C      -46.88890000     -36.35700000     -70.14290000
H      -46.27150000     -37.12830000     -69.71330000
H      -47.81490000     -36.86400000     -70.46240000
C      -42.51680000     -35.48120000     -72.43190000
H      -41.88320000     -36.19160000     -71.76220000
H      -42.10190000     -35.88770000     -73.39980000
S      -47.35640000     -35.04320000     -68.93010000
S      -41.94090000     -33.74970000     -72.27850000
C      -45.67310000     -34.23870000     -68.56950000
H      -45.28780000     -34.78070000     -67.70840000
H      -44.85250000     -34.53600000     -69.20490000
C      -42.53660000     -33.38670000     -70.55280000
H      -41.68380000     -33.62110000     -69.96080000
H      -43.36740000     -34.07330000     -70.33330000
C      -42.90240000     -31.93910000     -70.33060000
H      -42.99590000     -31.76340000     -69.23670000
H      -42.03480000     -31.30290000     -70.66450000
C      -45.79550000     -32.69850000     -68.43450000
H      -44.80480000     -32.33490000     -68.29140000
H      -46.38400000     -32.32450000     -67.58320000
C      -46.36700000     -32.17020000     -69.77480000
C      -47.73110000     -32.01840000     -70.04270000
C      -45.52750000     -31.63580000     -70.87560000
H      -48.57340000     -32.45570000     -69.43120000
C      -46.29920000     -31.29140000     -71.97800000
C      -44.12040000     -31.52900000     -71.15250000
C      -43.90510000     -30.99620000     -72.43860000
S      -48.05260000     -31.33610000     -71.65910000
S      -45.40320000     -30.90910000     -73.36850000
H      -42.97470000     -30.87410000     -73.01830000
