40
Properties=species:S:1:pos:R:3 #=T CELL(abcABC):=T 1.889726e+02=T 90.00000=T Traj:=T positionsangstrom=T Step:=T 0=T Bead:=T pbc="F F F"
C      -44.74280000     -34.93480000     -73.62840000
C      -44.04710000     -35.45910000     -72.48700000
C      -44.69970000     -36.02220000     -71.37120000
C      -46.11590000     -35.99540000     -71.36820000
C      -46.81630000     -35.57910000     -72.52240000
C      -46.15010000     -35.08110000     -73.62690000
H      -44.21450000     -34.42320000     -74.50270000
H      -44.08610000     -36.60910000     -70.65650000
H      -47.92360000     -35.74090000     -72.42260000
H      -46.64870000     -34.70990000     -74.48020000
C      -46.76030000     -36.48220000     -70.15630000
H      -46.23530000     -37.30210000     -69.61320000
H      -47.73260000     -36.94450000     -70.41940000
C      -42.55780000     -35.41760000     -72.55390000
H      -42.18060000     -35.99010000     -71.77160000
H      -42.29890000     -35.81560000     -73.53300000
S      -47.17310000     -35.13130000     -68.87100000
S      -41.82090000     -33.68270000     -72.25910000
C      -45.57190000     -34.15190000     -68.66910000
H      -45.11270000     -34.60230000     -67.80040000
H      -45.02020000     -34.17510000     -69.61340000
C      -42.35120000     -33.53180000     -70.61880000
H      -41.55620000     -33.75640000     -69.83950000
H      -43.10200000     -34.27410000     -70.43130000
C      -43.05060000     -32.12910000     -70.37410000
H      -43.38240000     -32.11700000     -69.33720000
H      -42.33580000     -31.35050000     -70.56800000
C      -45.97570000     -32.67240000     -68.40020000
H      -45.18410000     -32.00310000     -68.02400000
H      -46.74910000     -32.70460000     -67.61340000
C      -46.34410000     -32.02510000     -69.68670000
C      -47.64040000     -31.69440000     -69.94880000
C      -45.54620000     -31.66370000     -70.90130000
H      -48.42570000     -31.93460000     -69.17180000
C      -46.33640000     -31.17240000     -71.92730000
C      -44.16320000     -31.65750000     -71.21570000
C      -43.96420000     -31.23860000     -72.53230000
S      -48.10600000     -31.27250000     -71.56400000
S      -45.46260000     -30.71410000     -73.35440000
H      -43.01540000     -31.18970000     -73.05890000
