40
Properties=species:S:1:pos:R:3 #=T CELL(abcABC):=T 1.889726e+02=T 90.00000=T Traj:=T positionsangstrom=T Step:=T 0=T Bead:=T pbc="F F F"
C      -44.66900000     -34.91960000     -73.58680000
C      -43.99600000     -35.56090000     -72.47080000
C      -44.70900000     -36.10810000     -71.41330000
C      -46.11590000     -35.82330000     -71.38360000
C      -46.79620000     -35.06710000     -72.33730000
C      -46.03460000     -34.62360000     -73.45200000
H      -44.07000000     -34.62970000     -74.44150000
H      -44.09770000     -36.56120000     -70.62350000
H      -47.78800000     -34.69400000     -72.16410000
H      -46.60710000     -34.02970000     -74.18430000
C      -46.90860000     -36.34290000     -70.21380000
H      -46.27210000     -36.94240000     -69.52530000
H      -47.87310000     -36.80610000     -70.55050000
C      -42.51580000     -35.52620000     -72.39060000
H      -42.21140000     -36.04680000     -71.54080000
H      -42.02790000     -35.79600000     -73.22600000
S      -47.49320000     -34.99150000     -69.00040000
S      -41.89530000     -33.74260000     -72.12920000
C      -45.82090000     -34.33960000     -68.56520000
H      -45.51250000     -34.68430000     -67.54500000
H      -45.11080000     -34.49450000     -69.35840000
C      -42.50590000     -33.31870000     -70.36030000
H      -41.70600000     -33.49970000     -69.60080000
H      -43.31590000     -33.99610000     -70.02950000
C      -42.96680000     -31.88380000     -70.29880000
H      -43.26960000     -31.69920000     -69.27350000
H      -42.16090000     -31.19550000     -70.46860000
C      -45.76600000     -32.71910000     -68.47380000
H      -44.66980000     -32.64350000     -68.20500000
H      -46.37230000     -32.31980000     -67.63650000
C      -46.26100000     -32.11650000     -69.79530000
C      -47.63310000     -32.05990000     -70.03390000
C      -45.45680000     -31.74900000     -70.97600000
H      -48.41780000     -32.26100000     -69.32160000
C      -46.26970000     -31.48940000     -72.04640000
C      -44.08020000     -31.60790000     -71.29140000
C      -43.91230000     -31.13880000     -72.57300000
S      -47.95490000     -31.53370000     -71.70030000
S      -45.39770000     -30.80170000     -73.40540000
H      -43.00030000     -30.91580000     -73.10290000
