40
Properties=species:S:1:pos:R:3 #=T CELL(abcABC):=T 1.889726e+02=T 90.00000=T Traj:=T positionsangstrom=T Step:=T 0=T Bead:=T pbc="F F F"
C      -48.96030000     -33.73290000     -70.50210000
C      -48.29850000     -34.94790000     -70.84240000
C      -48.10640000     -35.25890000     -72.20900000
C      -48.45470000     -34.35630000     -73.22070000
C      -49.11260000     -33.16720000     -72.89600000
C      -49.32770000     -32.81780000     -71.52900000
H      -49.07000000     -33.43370000     -69.42500000
H      -47.44710000     -36.13890000     -72.30840000
H      -49.38770000     -32.42400000     -73.69950000
H      -49.96140000     -31.93910000     -71.43600000
C      -47.89910000     -34.55930000     -74.62000000
H      -48.22170000     -33.77400000     -75.41400000
H      -48.10450000     -35.48890000     -75.01770000
C      -48.01790000     -35.99530000     -69.76560000
H      -48.33950000     -35.69430000     -68.76910000
H      -48.40290000     -37.01480000     -69.97560000
S      -45.95320000     -34.55510000     -74.57480000
S      -46.18950000     -36.26990000     -69.87060000
C      -45.55530000     -33.13350000     -73.50560000
H      -45.48380000     -32.17440000     -74.04010000
H      -46.25340000     -32.98990000     -72.73700000
C      -45.50140000     -34.62990000     -69.44690000
H      -45.82740000     -34.27270000     -68.44520000
H      -45.94470000     -33.85050000     -70.01400000
C      -44.01570000     -34.61090000     -69.50770000
H      -43.59090000     -35.11030000     -68.64540000
H      -43.71650000     -35.15430000     -70.37930000
C      -44.23810000     -33.57530000     -72.76930000
H      -43.56440000     -34.04210000     -73.57110000
H      -44.58450000     -34.34110000     -71.98380000
C      -43.60100000     -32.39010000     -72.08500000
C      -43.13750000     -31.24490000     -72.70920000
C      -43.33170000     -32.30110000     -70.64800000
H      -43.13680000     -30.92480000     -73.75840000
C      -42.71670000     -31.09500000     -70.23980000
C      -43.41350000     -33.22080000     -69.52780000
C      -42.80420000     -32.75360000     -68.38030000
S      -42.33380000     -30.09040000     -71.61070000
S      -42.07520000     -31.16190000     -68.63960000
H      -42.63330000     -33.40840000     -67.48520000
