40
Properties=species:S:1:pos:R:3 #=T CELL(abcABC):=T 1.889726e+02=T 90.00000=T Traj:=T positionsangstrom=T Step:=T 0=T Bead:=T pbc="F F F"
C      -49.02220000     -33.88980000     -70.12840000
C      -48.16430000     -34.93540000     -70.40090000
C      -47.64640000     -35.09560000     -71.73360000
C      -48.14060000     -34.24710000     -72.78220000
C      -48.97200000     -33.18190000     -72.48410000
C      -49.44250000     -33.00160000     -71.16110000
H      -49.34850000     -33.72990000     -69.12060000
H      -47.10810000     -36.03860000     -71.99900000
H      -49.41130000     -32.59860000     -73.28890000
H      -50.25080000     -32.31280000     -70.96430000
C      -47.89910000     -34.61350000     -74.25390000
H      -48.54540000     -34.02430000     -74.84440000
H      -48.22170000     -35.69170000     -74.25690000
C      -47.79270000     -35.93680000     -69.30420000
H      -47.98730000     -35.40880000     -68.30760000
H      -48.47330000     -36.81770000     -69.34590000
S      -46.20690000     -34.58000000     -74.72610000
S      -45.97070000     -36.51550000     -69.29160000
C      -45.49240000     -33.08250000     -73.91080000
H      -45.44360000     -32.24150000     -74.57670000
H      -46.27060000     -32.79480000     -73.19500000
C      -45.25960000     -34.82510000     -69.22500000
H      -45.07020000     -34.60320000     -68.13980000
H      -45.99090000     -34.14170000     -69.68900000
C      -43.89710000     -34.69170000     -69.91700000
H      -43.04740000     -35.25510000     -69.42970000
H      -43.90320000     -34.99600000     -70.98240000
C      -44.27400000     -33.41120000     -73.15110000
H      -43.46210000     -33.71160000     -73.89280000
H      -44.42840000     -34.26590000     -72.51570000
C      -43.73870000     -32.23400000     -72.40170000
C      -43.44580000     -30.98720000     -72.90180000
C      -43.40370000     -32.27620000     -71.00110000
H      -43.88310000     -30.84160000     -73.89400000
C      -42.79660000     -31.09350000     -70.57840000
C      -43.33760000     -33.23310000     -69.95560000
C      -42.61360000     -32.82620000     -68.87070000
S      -42.78570000     -29.79940000     -71.79400000
S      -42.03800000     -31.24340000     -68.99430000
H      -42.26730000     -33.48530000     -68.04380000
