40
Properties=species:S:1:pos:R:3 #=T CELL(abcABC):=T 1.889726e+02=T 90.00000=T Traj:=T positionsangstrom=T Step:=T 0=T Bead:=T pbc="F F F"
C      -44.40280000     -34.62130000     -73.25150000
C      -43.96680000     -35.46040000     -72.22910000
C      -44.91030000     -36.07150000     -71.39340000
C      -46.26880000     -35.72680000     -71.53110000
C      -46.73850000     -35.02010000     -72.66380000
C      -45.76420000     -34.50680000     -73.52560000
H      -43.66210000     -34.11770000     -73.85350000
H      -44.63710000     -36.88420000     -70.70440000
H      -47.83200000     -34.80750000     -72.84330000
H      -46.06790000     -33.76560000     -74.25770000
C      -47.25430000     -36.30370000     -70.52710000
H      -46.77250000     -37.21640000     -70.11280000
H      -48.17010000     -36.57450000     -70.98770000
C      -42.42820000     -35.56260000     -72.12600000
H      -41.89810000     -36.32560000     -71.48410000
H      -41.96360000     -35.56530000     -73.12170000
S      -47.80900000     -35.14950000     -69.14980000
S      -41.76730000     -33.98630000     -71.47170000
C      -46.29090000     -34.15880000     -68.77370000
H      -45.87770000     -34.42480000     -67.78160000
H      -45.56000000     -34.36850000     -69.60210000
C      -42.73240000     -33.84330000     -69.86060000
H      -42.07250000     -34.11660000     -69.02840000
H      -43.53040000     -34.56740000     -69.88930000
C      -43.27000000     -32.37810000     -69.75770000
H      -43.86620000     -32.26860000     -68.83910000
H      -42.41710000     -31.72080000     -69.72050000
C      -46.69520000     -32.62400000     -68.78530000
H      -46.22370000     -31.93680000     -68.06480000
H      -47.73140000     -32.54830000     -68.32860000
C      -46.73620000     -32.14320000     -70.22670000
C      -47.94830000     -31.80380000     -70.85050000
C      -45.55920000     -31.90640000     -71.05360000
H      -48.87930000     -31.85250000     -70.34810000
C      -45.91110000     -31.29360000     -72.25480000
C      -44.11030000     -31.99840000     -70.92860000
C      -43.47510000     -31.28240000     -71.94400000
S      -47.64560000     -31.02770000     -72.41480000
S      -44.59380000     -30.75580000     -73.18450000
H      -42.39000000     -31.22390000     -72.04380000
