40
Properties=species:S:1:pos:R:3 #=T CELL(abcABC):=T 1.889726e+02=T 90.00000=T Traj:=T positionsangstrom=T Step:=T 0=T Bead:=T pbc="F F F"
C      -44.76700000     -34.87320000     -73.67330000
C      -44.05690000     -35.21430000     -72.53190000
C      -44.72660000     -35.55590000     -71.32770000
C      -46.12590000     -35.60760000     -71.23290000
C      -46.81380000     -35.19130000     -72.37400000
C      -46.13170000     -34.87770000     -73.56340000
H      -44.28410000     -34.83220000     -74.64930000
H      -44.13600000     -36.07690000     -70.61870000
H      -47.92910000     -35.20240000     -72.39030000
H      -46.76260000     -34.59920000     -74.43430000
C      -46.97290000     -36.36040000     -70.21180000
H      -46.35360000     -37.18820000     -69.74900000
H      -47.87220000     -36.83210000     -70.63750000
C      -42.55470000     -35.26520000     -72.45370000
H      -42.16570000     -36.05480000     -71.71840000
H      -42.11090000     -35.49520000     -73.42490000
S      -47.63760000     -35.24430000     -68.94530000
S      -41.76470000     -33.76960000     -71.80260000
C      -46.12300000     -34.24590000     -68.47080000
H      -45.90330000     -34.56540000     -67.43790000
H      -45.30100000     -34.55240000     -69.13460000
C      -42.57560000     -33.42060000     -70.19960000
H      -41.76590000     -33.63130000     -69.47350000
H      -43.40630000     -34.15910000     -70.06300000
C      -43.06140000     -31.99630000     -69.93790000
H      -43.51610000     -31.90300000     -68.99630000
H      -42.12660000     -31.31460000     -69.93910000
C      -46.24970000     -32.71410000     -68.56300000
H      -45.30910000     -32.22850000     -68.13250000
H      -47.12260000     -32.38220000     -67.91180000
C      -46.48120000     -32.14810000     -69.97780000
C      -47.76340000     -32.05200000     -70.45140000
C      -45.46580000     -31.68470000     -70.94410000
H      -48.75710000     -32.32670000     -70.02810000
C      -46.13150000     -31.39730000     -72.15290000
C      -44.00610000     -31.55410000     -71.02460000
C      -43.57450000     -31.18090000     -72.27520000
S      -47.83340000     -31.40280000     -72.12230000
S      -44.97920000     -31.00510000     -73.46130000
H      -42.52800000     -31.22680000     -72.53520000
