40
Properties=species:S:1:pos:R:3 #=T CELL(abcABC):=T 1.889726e+02=T 90.00000=T Traj:=T positionsangstrom=T Step:=T 0=T Bead:=T pbc="F F F"
C      -44.42670000     -34.72560000     -73.38390000
C      -43.93310000     -35.50140000     -72.33800000
C      -44.84180000     -36.08210000     -71.39730000
C      -46.23270000     -35.77680000     -71.43250000
C      -46.69960000     -34.86010000     -72.44350000
C      -45.76330000     -34.43770000     -73.41750000
H      -43.70910000     -34.36290000     -74.14890000
H      -44.38550000     -36.61400000     -70.60650000
H      -47.73390000     -34.70530000     -72.53890000
H      -46.15220000     -33.90450000     -74.30370000
C      -47.07870000     -36.36510000     -70.40570000
H      -46.69940000     -37.37270000     -70.07640000
H      -48.03730000     -36.67280000     -70.87460000
C      -42.44130000     -35.66520000     -72.12180000
H      -42.29690000     -36.45100000     -71.37270000
H      -41.89210000     -35.97230000     -73.00610000
S      -47.68500000     -35.30280000     -69.08190000
S      -41.81300000     -34.02280000     -71.55880000
C      -46.29870000     -34.13510000     -68.53580000
H      -46.20080000     -34.40470000     -67.52450000
H      -45.35990000     -34.49790000     -68.99630000
C      -42.87980000     -33.73650000     -70.06060000
H      -42.27180000     -34.05620000     -69.15740000
H      -43.78990000     -34.36100000     -69.95090000
C      -43.35510000     -32.32630000     -69.80190000
H      -43.93530000     -32.32270000     -68.86700000
H      -42.48750000     -31.63800000     -69.69480000
C      -46.58900000     -32.62800000     -68.71660000
H      -45.81570000     -32.06920000     -68.16850000
H      -47.51600000     -32.42850000     -68.16380000
C      -46.65610000     -32.03820000     -70.15750000
C      -47.85430000     -31.79750000     -70.80010000
C      -45.54540000     -31.66420000     -71.00850000
H      -48.78870000     -32.23100000     -70.46400000
C      -45.95430000     -31.15380000     -72.26640000
C      -44.15180000     -31.75430000     -70.92560000
C      -43.57110000     -31.18390000     -72.04740000
S      -47.71400000     -31.17120000     -72.45430000
S      -44.67490000     -30.72610000     -73.31420000
H      -42.48020000     -30.96920000     -72.14090000
