40
Properties=species:S:1:pos:R:3 #=T CELL(abcABC):=T 1.889726e+02=T 90.00000=T Traj:=T positionsangstrom=T Step:=T 0=T Bead:=T pbc="F F F"
C      -44.48390000     -34.45040000     -73.30100000
C      -43.94750000     -35.31810000     -72.31930000
C      -44.85440000     -35.94210000     -71.46570000
C      -46.23420000     -35.86670000     -71.74620000
C      -46.83080000     -35.09960000     -72.81860000
C      -45.87910000     -34.38450000     -73.55860000
H      -43.79180000     -33.91910000     -73.94890000
H      -44.67880000     -36.58900000     -70.63290000
H      -47.93350000     -35.11580000     -73.05730000
H      -46.19300000     -33.72300000     -74.37750000
C      -47.32230000     -36.36420000     -70.73460000
H      -46.87790000     -37.11510000     -70.08070000
H      -48.03730000     -37.00850000     -71.32510000
C      -42.45280000     -35.40940000     -72.21830000
H      -42.18120000     -36.45480000     -71.93050000
H      -42.07030000     -35.08080000     -73.22210000
S      -48.14810000     -35.04220000     -69.73250000
S      -41.64780000     -34.13570000     -71.05740000
C      -46.66250000     -34.30930000     -68.75310000
H      -46.60580000     -34.84130000     -67.78070000
H      -45.76630000     -34.55780000     -69.34420000
C      -42.84950000     -33.85350000     -69.68250000
H      -42.29240000     -34.01570000     -68.75120000
H      -43.67640000     -34.58740000     -69.74500000
C      -43.18310000     -32.36660000     -69.69870000
H      -43.60150000     -32.12570000     -68.74090000
H      -42.18330000     -31.81990000     -69.76890000
C      -46.72650000     -32.79690000     -68.70640000
H      -45.77420000     -32.47730000     -68.19630000
H      -47.61170000     -32.36140000     -68.21000000
C      -46.63860000     -32.08000000     -70.08560000
C      -47.78910000     -31.64430000     -70.69840000
C      -45.45590000     -31.90520000     -70.94550000
H      -48.79720000     -31.77060000     -70.33480000
C      -45.80930000     -31.30430000     -72.12940000
C      -43.97820000     -31.93770000     -70.80690000
C      -43.35840000     -31.45880000     -71.93260000
S      -47.48230000     -30.87430000     -72.28800000
S      -44.51480000     -30.92550000     -73.15870000
H      -42.28410000     -31.40990000     -72.03890000
