40
Properties=species:S:1:pos:R:3 #=T CELL(abcABC):=T 1.889726e+02=T 90.00000=T Traj:=T positionsangstrom=T Step:=T 0=T Bead:=T pbc="F F F"
C      -44.60180000     -34.66690000     -73.43950000
C      -43.96140000     -35.44820000     -72.42140000
C      -44.70810000     -36.05140000     -71.34620000
C      -46.17750000     -35.89250000     -71.27620000
C      -46.74060000     -35.08010000     -72.29240000
C      -45.97110000     -34.50460000     -73.29160000
H      -44.08210000     -34.34970000     -74.32270000
H      -44.23310000     -36.71860000     -70.63160000
H      -47.68490000     -34.80600000     -72.22960000
H      -46.50470000     -33.83760000     -73.94910000
C      -47.09630000     -36.47800000     -70.24730000
H      -46.66040000     -37.16350000     -69.55460000
H      -47.99790000     -36.84320000     -70.71780000
C      -42.44450000     -35.58000000     -72.27340000
H      -42.21710000     -36.44420000     -71.65000000
H      -41.91450000     -35.71190000     -73.22420000
S      -47.80200000     -35.07850000     -69.07450000
S      -41.72580000     -33.98360000     -71.52530000
C      -46.31720000     -34.15200000     -68.72040000
H      -45.98080000     -34.39690000     -67.66160000
H      -45.46610000     -34.36890000     -69.35080000
C      -42.70820000     -33.58710000     -70.02060000
H      -42.18780000     -33.94040000     -69.17970000
H      -43.62510000     -34.10660000     -70.17830000
C      -43.08340000     -32.09190000     -69.93040000
H      -43.51460000     -32.03430000     -68.94870000
H      -42.23620000     -31.41240000     -69.95540000
C      -46.56740000     -32.68100000     -68.70120000
H      -45.69520000     -32.26700000     -68.16250000
H      -47.48990000     -32.48850000     -68.25150000
C      -46.62320000     -32.12350000     -70.12970000
C      -47.80520000     -32.07250000     -70.81860000
C      -45.51890000     -31.75820000     -71.05290000
H      -48.69690000     -32.28930000     -70.21000000
C      -45.99350000     -31.24530000     -72.28510000
C      -44.11130000     -31.70770000     -71.03030000
C      -43.55760000     -31.21290000     -72.18850000
S      -47.73520000     -31.31210000     -72.40770000
S      -44.75740000     -30.68350000     -73.30800000
H      -42.52120000     -31.13210000     -72.41450000
