40
Properties=species:S:1:pos:R:3 #=T CELL(abcABC):=T 1.889726e+02=T 90.00000=T Traj:=T positionsangstrom=T Step:=T 0=T Bead:=T pbc="F F F"
C      -48.89520000     -32.53490000     -70.33890000
C      -47.55460000     -32.16090000     -70.63190000
C      -46.63560000     -33.16060000     -70.26530000
C      -46.99800000     -34.40930000     -69.73210000
C      -48.32590000     -34.73260000     -69.53950000
C      -49.28370000     -33.76760000     -69.80900000
H      -49.61900000     -31.85360000     -70.68430000
H      -45.55910000     -32.92790000     -70.35470000
H      -48.60210000     -35.72030000     -69.21020000
H      -50.36720000     -33.99890000     -69.72990000
C      -45.95990000     -35.42440000     -69.45820000
H      -46.13940000     -36.04640000     -68.61760000
H      -44.92550000     -34.99740000     -69.32290000
C      -47.24630000     -30.77540000     -71.16060000
H      -47.97040000     -30.08930000     -70.85490000
H      -46.25020000     -30.47760000     -70.89270000
S      -45.78000000     -36.70950000     -70.81190000
S      -47.25970000     -30.72730000     -73.00340000
C      -45.87210000     -35.69310000     -72.30040000
H      -46.49480000     -36.18420000     -73.05100000
H      -46.26020000     -34.66520000     -72.06510000
C      -46.58040000     -32.34480000     -73.55850000
H      -47.06910000     -32.57990000     -74.51250000
H      -46.84120000     -33.00250000     -72.75900000
C      -45.09360000     -32.34970000     -73.80410000
H      -44.80630000     -33.24500000     -74.32780000
H      -44.86720000     -31.59530000     -74.57420000
C      -44.46430000     -35.54410000     -72.99880000
H      -44.52210000     -35.11940000     -74.00890000
H      -44.04490000     -36.55730000     -73.15030000
C      -43.58930000     -34.75500000     -72.05500000
C      -42.76240000     -35.35880000     -71.16200000
C      -43.56870000     -33.32760000     -71.89230000
H      -42.68220000     -36.39600000     -70.89150000
C      -42.69790000     -32.87420000     -70.95300000
C      -44.20270000     -32.23240000     -72.58480000
C      -43.98620000     -31.01090000     -71.94780000
S      -41.90330000     -34.23490000     -70.11330000
S      -42.72340000     -31.11590000     -70.71200000
H      -44.26400000     -30.02600000     -72.38020000
