40
Properties=species:S:1:pos:R:3 #=T CELL(abcABC):=T 1.889726e+02=T 90.00000=T Traj:=T positionsangstrom=T Step:=T 0=T Bead:=T pbc="F F F"
C      -48.39340000     -35.22040000     -69.59380000
C      -47.43700000     -35.99530000     -70.24330000
C      -47.23240000     -35.86090000     -71.63940000
C      -48.09420000     -35.05120000     -72.35620000
C      -49.02250000     -34.21920000     -71.72820000
C      -49.08200000     -34.22840000     -70.31130000
H      -48.56870000     -35.39050000     -68.53930000
H      -46.45970000     -36.44800000     -72.13060000
H      -49.55290000     -33.40830000     -72.24250000
H      -49.79330000     -33.60490000     -69.77210000
C      -47.82530000     -34.87590000     -73.89700000
H      -48.43260000     -34.02000000     -74.19460000
H      -48.29970000     -35.71510000     -74.45930000
C      -46.67930000     -36.98530000     -69.38110000
H      -47.16050000     -37.05480000     -68.32770000
H      -46.58840000     -37.96510000     -69.84750000
S      -46.02070000     -34.82380000     -74.31700000
S      -44.86730000     -36.53900000     -69.17370000
C      -45.50710000     -33.19620000     -73.59170000
H      -46.08730000     -32.47660000     -74.14130000
H      -45.77280000     -33.06990000     -72.49810000
C      -44.86000000     -34.69620000     -68.97860000
H      -43.93980000     -34.53140000     -68.36290000
H      -45.81750000     -34.22220000     -68.47940000
C      -44.61250000     -33.99830000     -70.35660000
H      -43.82520000     -34.44720000     -70.97260000
H      -45.47360000     -34.07840000     -70.94210000
C      -43.99320000     -32.97490000     -73.72660000
H      -43.79540000     -32.72420000     -74.76440000
H      -43.46470000     -33.86120000     -73.50110000
C      -43.59990000     -31.84900000     -72.84380000
C      -43.10470000     -30.70890000     -73.44850000
C      -43.73280000     -31.75430000     -71.39920000
H      -42.70620000     -30.73250000     -74.42750000
C      -43.35460000     -30.48540000     -70.93680000
C      -44.31630000     -32.49760000     -70.26820000
C      -44.25020000     -31.78090000     -69.13120000
S      -42.71230000     -29.43070000     -72.18830000
S      -43.58250000     -30.19820000     -69.27340000
H      -44.48150000     -32.12660000     -68.16050000
