40
Properties=species:S:1:pos:R:3 #=T CELL(abcABC):=T 1.889726e+02=T 90.00000=T Traj:=T positionsangstrom=T Step:=T 0=T Bead:=T pbc="F F F"
C      -45.58230000     -37.49860000     -69.38350000
C      -45.88090000     -36.84960000     -70.60270000
C      -46.82030000     -35.83320000     -70.59030000
C      -47.39960000     -35.47450000     -69.32510000
C      -47.14590000     -36.22640000     -68.13620000
C      -46.25440000     -37.31400000     -68.22630000
H      -44.74840000     -38.19230000     -69.34900000
H      -47.15980000     -35.35400000     -71.43700000
H      -47.52300000     -35.90420000     -67.20670000
H      -45.94440000     -38.04890000     -67.47880000
C      -48.10990000     -34.15650000     -69.23970000
H      -49.12240000     -34.18860000     -68.91380000
H      -48.16680000     -33.62490000     -70.19400000
C      -45.15990000     -37.31870000     -71.87440000
H      -44.04420000     -37.26150000     -71.74300000
H      -45.39650000     -38.34520000     -71.97670000
S      -47.16660000     -33.06250000     -68.11200000
S      -45.63680000     -36.43310000     -73.45170000
C      -46.44410000     -31.80100000     -69.31520000
H      -47.32050000     -31.52660000     -69.97270000
H      -46.00280000     -31.01130000     -68.73760000
C      -44.65680000     -34.82700000     -73.34040000
H      -44.03290000     -34.78540000     -74.23130000
H      -44.09400000     -34.84920000     -72.42020000
C      -45.59300000     -33.54700000     -73.39070000
H      -46.10410000     -33.59240000     -74.29400000
H      -46.33080000     -33.65370000     -72.64300000
C      -45.38180000     -32.48290000     -70.11750000
H      -45.94390000     -33.13590000     -70.77900000
H      -44.65550000     -33.04110000     -69.45190000
C      -44.54370000     -31.50920000     -70.89660000
C      -43.83590000     -30.50280000     -70.31740000
C      -44.37130000     -31.42920000     -72.28310000
H      -43.84170000     -30.24710000     -69.25970000
C      -43.61510000     -30.33550000     -72.76120000
C      -44.83730000     -32.23910000     -73.38630000
C      -44.38180000     -31.67810000     -74.61440000
S      -42.93550000     -29.50110000     -71.40770000
S      -43.51780000     -30.16290000     -74.55170000
H      -44.38200000     -32.05170000     -75.75310000
