40
Properties=species:S:1:pos:R:3 #=T CELL(abcABC):=T 1.889726e+02=T 90.00000=T Traj:=T positionsangstrom=T Step:=T 0=T Bead:=T pbc="F F F"
C      -44.18020000     -34.48200000     -73.61660000
C      -43.97290000     -35.33380000     -72.46570000
C      -45.08640000     -35.77320000     -71.75080000
C      -46.44030000     -35.34450000     -72.04540000
C      -46.59540000     -34.47610000     -73.10620000
C      -45.51500000     -34.14110000     -73.93750000
H      -43.39210000     -34.13620000     -74.21660000
H      -44.79610000     -36.58820000     -70.96820000
H      -47.55250000     -34.06260000     -73.33750000
H      -45.70140000     -33.50300000     -74.78220000
C      -47.47570000     -35.94480000     -71.15250000
H      -46.98800000     -36.82670000     -70.72170000
H      -48.19520000     -36.35880000     -71.79110000
C      -42.53390000     -35.80830000     -71.99060000
H      -42.60180000     -36.60170000     -71.32250000
H      -41.87930000     -35.95510000     -72.82170000
S      -48.26300000     -34.94490000     -69.80440000
S      -41.75210000     -34.34780000     -70.99980000
C      -46.82960000     -34.33880000     -68.78860000
H      -46.76620000     -34.86130000     -67.82560000
H      -45.93770000     -34.77370000     -69.33320000
C      -42.99730000     -34.22280000     -69.69930000
H      -42.63980000     -34.64580000     -68.71870000
H      -43.79330000     -34.80710000     -70.14020000
C      -43.44870000     -32.76320000     -69.37290000
H      -44.21440000     -32.91080000     -68.67330000
H      -42.70470000     -32.17930000     -68.83140000
C      -46.75820000     -32.83890000     -68.71550000
H      -45.93070000     -32.46780000     -68.00970000
H      -47.73310000     -32.65270000     -68.22480000
C      -46.69520000     -32.14300000     -70.05820000
C      -47.78540000     -31.85330000     -70.78760000
C      -45.41830000     -31.93050000     -70.79470000
H      -48.81920000     -31.93990000     -70.48230000
C      -45.69380000     -31.32430000     -72.00430000
C      -44.01040000     -31.94950000     -70.52530000
C      -43.23260000     -31.34920000     -71.47100000
S      -47.39400000     -31.01600000     -72.40290000
S      -44.25890000     -30.79070000     -72.76730000
H      -42.14440000     -31.48240000     -71.50410000
