40
Properties=species:S:1:pos:R:3 #=T CELL(abcABC):=T 1.889726e+02=T 90.00000=T Traj:=T positionsangstrom=T Step:=T 0=T Bead:=T pbc="F F F"
C      -44.29920000     -34.65510000     -73.39390000
C      -44.31200000     -35.61310000     -72.35060000
C      -45.54470000     -36.06020000     -71.87740000
C      -46.77990000     -35.46660000     -72.25310000
C      -46.68140000     -34.40830000     -73.15220000
C      -45.49090000     -34.11690000     -73.83670000
H      -43.34500000     -34.31800000     -73.81620000
H      -45.46270000     -36.78280000     -71.05920000
H      -47.44510000     -33.70140000     -73.38840000
H      -45.49940000     -33.33970000     -74.62070000
C      -47.96660000     -36.01340000     -71.53090000
H      -47.79350000     -37.04630000     -71.20130000
H      -48.80700000     -36.02590000     -72.19010000
C      -42.99660000     -36.13990000     -71.77040000
H      -43.22130000     -36.97720000     -71.10730000
H      -42.29570000     -36.58910000     -72.52490000
S      -48.45820000     -34.87020000     -70.07170000
S      -41.95490000     -34.84800000     -70.96960000
C      -46.85210000     -34.62280000     -69.10530000
H      -46.92550000     -34.99660000     -68.10030000
H      -46.10320000     -35.24330000     -69.61840000
C      -43.12430000     -34.24620000     -69.68500000
H      -42.88250000     -34.79460000     -68.78080000
H      -44.14250000     -34.65140000     -69.81330000
C      -43.06890000     -32.69920000     -69.41100000
H      -43.60410000     -32.39350000     -68.41660000
H      -42.02160000     -32.47870000     -69.40540000
C      -46.53330000     -33.10750000     -68.89080000
H      -45.61960000     -33.08690000     -68.26370000
H      -47.24750000     -32.54450000     -68.29330000
C      -46.45780000     -32.18450000     -70.09890000
C      -47.52870000     -31.83760000     -70.86410000
C      -45.18700000     -31.82060000     -70.75300000
H      -48.48060000     -32.25510000     -70.71320000
C      -45.40850000     -30.93770000     -71.83700000
C      -43.75280000     -31.87090000     -70.51030000
C      -43.05070000     -31.00640000     -71.26720000
S      -47.10800000     -30.84180000     -72.25440000
S      -43.97660000     -30.19770000     -72.53710000
H      -41.95230000     -30.99050000     -71.26310000
