40
Properties=species:S:1:pos:R:3 #=T CELL(abcABC):=T 1.889726e+02=T 90.00000=T Traj:=T positionsangstrom=T Step:=T 0=T Bead:=T pbc="F F F"
C      -47.64730000     -35.86070000     -69.49270000
C      -46.44510000     -36.27440000     -70.19920000
C      -46.51230000     -36.28620000     -71.59320000
C      -47.62290000     -35.77280000     -72.31870000
C      -48.69560000     -35.30600000     -71.59660000
C      -48.68090000     -35.31350000     -70.14610000
H      -47.62340000     -35.89860000     -68.36930000
H      -45.60950000     -36.60070000     -72.14730000
H      -49.46660000     -34.80010000     -72.20200000
H      -49.64530000     -35.13790000     -69.69020000
C      -47.55580000     -35.62670000     -73.89720000
H      -48.35610000     -35.02560000     -74.29490000
H      -47.71950000     -36.62430000     -74.37470000
C      -45.29050000     -36.72870000     -69.36440000
H      -45.35260000     -36.21500000     -68.41020000
H      -45.39600000     -37.77460000     -69.08210000
S      -46.08760000     -34.80370000     -74.53670000
S      -43.61160000     -36.46450000     -70.09220000
C      -46.14090000     -33.28790000     -73.41500000
H      -47.10910000     -32.76880000     -73.37410000
H      -45.99780000     -33.60870000     -72.33570000
C      -43.13130000     -34.67290000     -69.72640000
H      -42.06770000     -34.77830000     -69.48810000
H      -43.69220000     -34.37500000     -68.81870000
C      -43.30710000     -33.71940000     -70.88340000
H      -42.53560000     -33.85460000     -71.73790000
H      -44.31370000     -33.86320000     -71.33740000
C      -44.87470000     -32.30450000     -73.69270000
H      -44.67240000     -31.91680000     -74.70700000
H      -44.03850000     -33.01070000     -73.61290000
C      -44.80880000     -31.22160000     -72.60290000
C      -45.56690000     -30.09400000     -72.79830000
C      -44.08050000     -31.25140000     -71.34410000
H      -46.20950000     -29.89000000     -73.55420000
C      -44.33950000     -30.07950000     -70.63230000
C      -43.44190000     -32.27550000     -70.49790000
C      -43.13090000     -31.82420000     -69.27320000
S      -45.41980000     -28.96570000     -71.44590000
S      -43.74290000     -30.10580000     -69.00550000
H      -42.57150000     -32.34460000     -68.41730000
