40
Properties=species:S:1:pos:R:3 #=T CELL(abcABC):=T 1.889726e+02=T 90.00000=T Traj:=T positionsangstrom=T Step:=T 0=T Bead:=T pbc="F F F"
C      -47.92200000     -34.73730000     -69.65120000
C      -47.18130000     -35.87370000     -69.96490000
C      -47.06250000     -36.26790000     -71.30360000
C      -47.68080000     -35.47920000     -72.34640000
C      -48.34970000     -34.33650000     -71.96800000
C      -48.52970000     -33.94970000     -70.62360000
H      -48.03460000     -34.63500000     -68.55820000
H      -46.68040000     -37.24080000     -71.55550000
H      -48.83940000     -33.69130000     -72.75210000
H      -48.95170000     -32.98170000     -70.30700000
C      -47.48410000     -35.74440000     -73.80740000
H      -48.25660000     -35.25240000     -74.50580000
H      -47.43540000     -36.82150000     -73.91630000
C      -46.40740000     -36.59920000     -68.84030000
H      -46.66100000     -36.21520000     -67.88330000
H      -46.78020000     -37.63520000     -68.80790000
S      -45.78410000     -35.18380000     -74.23760000
S      -44.58850000     -36.51060000     -69.25440000
C      -45.81810000     -33.41840000     -73.70990000
H      -46.38160000     -32.77210000     -74.41040000
H      -46.45690000     -33.34600000     -72.77700000
C      -44.39290000     -34.63010000     -69.17530000
H      -43.57590000     -34.51560000     -68.45010000
H      -45.32700000     -34.23890000     -68.68420000
C      -44.15580000     -34.04280000     -70.50420000
H      -43.35810000     -34.68360000     -71.00940000
H      -45.09140000     -34.22170000     -71.01600000
C      -44.30730000     -32.91310000     -73.68150000
H      -44.14300000     -32.82080000     -74.72510000
H      -43.64950000     -33.70730000     -73.23080000
C      -44.15740000     -31.60420000     -72.91890000
C      -44.19080000     -30.34000000     -73.41730000
C      -43.89170000     -31.59610000     -71.46080000
H      -44.31480000     -30.07420000     -74.45870000
C      -43.71380000     -30.30400000     -71.03060000
C      -43.94970000     -32.58070000     -70.36780000
C      -43.89180000     -31.97570000     -69.09960000
S      -43.85250000     -29.06820000     -72.20990000
S      -43.77990000     -30.17990000     -69.25420000
H      -44.08010000     -32.41700000     -68.12960000
