40
Properties=species:S:1:pos:R:3 #=T CELL(abcABC):=T 1.889726e+02=T 90.00000=T Traj:=T positionsangstrom=T Step:=T 0=T Bead:=T pbc="F F F"
C      -47.94200000     -35.29150000     -69.54030000
C      -46.78010000     -35.92480000     -69.94980000
C      -46.59760000     -36.19650000     -71.27870000
C      -47.54860000     -35.79700000     -72.26930000
C      -48.70110000     -35.13040000     -71.84500000
C      -48.87960000     -34.84620000     -70.46950000
H      -48.06200000     -35.06680000     -68.46340000
H      -45.68660000     -36.72680000     -71.62260000
H      -49.39370000     -34.59380000     -72.52310000
H      -49.77640000     -34.39010000     -70.13210000
C      -47.28880000     -36.09590000     -73.68270000
H      -48.24260000     -36.01810000     -74.17410000
H      -46.90200000     -37.12560000     -74.01670000
C      -45.67860000     -36.22120000     -68.88330000
H      -45.70440000     -35.41760000     -68.14100000
H      -45.87260000     -37.13560000     -68.31000000
S      -46.14900000     -34.94120000     -74.58600000
S      -43.96910000     -36.37540000     -69.57620000
C      -46.18160000     -33.36320000     -73.69660000
H      -46.77180000     -32.59070000     -74.21970000
H      -46.71560000     -33.51260000     -72.76580000
C      -43.23270000     -34.75970000     -69.37540000
H      -42.14750000     -34.82980000     -69.10200000
H      -43.74620000     -34.17180000     -68.57590000
C      -43.55200000     -33.89930000     -70.65470000
H      -42.80210000     -34.08910000     -71.38910000
H      -44.54240000     -34.25300000     -71.07060000
C      -44.79370000     -32.79220000     -73.56490000
H      -44.43140000     -32.56970000     -74.56120000
H      -44.01440000     -33.41410000     -73.18860000
C      -44.67410000     -31.54400000     -72.73060000
C      -45.15680000     -30.31660000     -73.07880000
C      -44.09240000     -31.47780000     -71.39610000
H      -45.66470000     -29.98730000     -74.05650000
C      -44.15250000     -30.16120000     -70.90560000
C      -43.67180000     -32.43820000     -70.36150000
C      -43.27620000     -31.73520000     -69.20340000
S      -44.95670000     -29.00630000     -71.87940000
S      -43.40710000     -29.99410000     -69.29930000
H      -42.94100000     -32.23360000     -68.36000000
