40
Properties=species:S:1:pos:R:3 #=T CELL(abcABC):=T 1.889726e+02=T 90.00000=T Traj:=T positionsangstrom=T Step:=T 0=T Bead:=T pbc="F F F"
C      -47.88980000     -34.99320000     -69.70490000
C      -46.94450000     -36.00990000     -69.96820000
C      -46.76090000     -36.29230000     -71.33630000
C      -47.51090000     -35.68950000     -72.33620000
C      -48.43220000     -34.70230000     -71.98290000
C      -48.64130000     -34.33190000     -70.66500000
H      -47.89980000     -34.54490000     -68.70890000
H      -45.98810000     -36.97840000     -71.64320000
H      -48.94940000     -34.18900000     -72.75620000
H      -49.27780000     -33.54480000     -70.36720000
C      -47.32810000     -35.98080000     -73.86170000
H      -48.20660000     -35.65490000     -74.40180000
H      -47.13970000     -37.01480000     -74.09650000
C      -46.10020000     -36.54940000     -68.82850000
H      -46.41730000     -35.92930000     -67.91810000
H      -46.30500000     -37.55670000     -68.49710000
S      -45.95030000     -35.02410000     -74.54380000
S      -44.33570000     -36.45090000     -69.06790000
C      -46.01950000     -33.47150000     -73.59160000
H      -46.84610000     -32.73620000     -73.94960000
H      -46.22390000     -33.55730000     -72.53880000
C      -43.98730000     -34.62150000     -69.17550000
H      -42.93760000     -34.47490000     -68.86740000
H      -44.57940000     -34.01930000     -68.49100000
C      -44.19360000     -33.95610000     -70.51640000
H      -43.65110000     -34.36770000     -71.31460000
H      -45.25760000     -34.10690000     -70.84870000
C      -44.60910000     -32.83700000     -73.56770000
H      -44.33110000     -32.70710000     -74.60300000
H      -43.88640000     -33.57900000     -73.26580000
C      -44.49590000     -31.54740000     -72.81580000
C      -44.62870000     -30.33370000     -73.34700000
C      -44.19830000     -31.47730000     -71.39890000
H      -44.86260000     -30.12610000     -74.38390000
C      -44.07610000     -30.15190000     -70.91780000
C      -43.90960000     -32.45630000     -70.36100000
C      -43.47030000     -31.84720000     -69.20440000
S      -44.27350000     -29.01490000     -72.16350000
S      -43.47030000     -30.12480000     -69.29620000
H      -43.16920000     -32.40970000     -68.32770000
