40
Properties=species:S:1:pos:R:3 #=T CELL(abcABC):=T 1.889726e+02=T 90.00000=T Traj:=T positionsangstrom=T Step:=T 0=T Bead:=T pbc="F F F"
C      -47.92560000     -35.10530000     -69.63690000
C      -46.75300000     -35.82720000     -69.92880000
C      -46.61160000     -36.17430000     -71.28910000
C      -47.48650000     -35.69780000     -72.28530000
C      -48.67790000     -35.03150000     -71.90210000
C      -48.84210000     -34.68710000     -70.60790000
H      -48.02490000     -34.70610000     -68.60660000
H      -45.82320000     -36.80860000     -71.69050000
H      -49.49130000     -34.86320000     -72.65910000
H      -49.78190000     -34.17280000     -70.29980000
C      -47.31500000     -36.09770000     -73.75050000
H      -48.25560000     -36.19660000     -74.23760000
H      -46.93160000     -37.13390000     -73.70810000
C      -45.82120000     -36.26970000     -68.87010000
H      -45.79100000     -35.62190000     -67.98650000
H      -46.18180000     -37.24670000     -68.51610000
S      -46.07490000     -35.00290000     -74.62420000
S      -44.09880000     -36.51780000     -69.36510000
C      -46.19980000     -33.37190000     -73.71510000
H      -46.83810000     -32.74640000     -74.30540000
H      -46.63560000     -33.66020000     -72.69360000
C      -43.48570000     -34.74010000     -69.27360000
H      -42.45370000     -34.74130000     -69.10360000
H      -44.00250000     -34.38350000     -68.36360000
C      -43.76110000     -33.91910000     -70.58720000
H      -43.06220000     -34.28550000     -71.37890000
H      -44.74240000     -34.13150000     -70.98970000
C      -44.80360000     -32.83690000     -73.52040000
H      -44.43180000     -32.60630000     -74.51120000
H      -44.31640000     -33.71490000     -73.10230000
C      -44.68430000     -31.59790000     -72.66440000
C      -45.07270000     -30.44080000     -73.16700000
C      -44.17220000     -31.43560000     -71.30560000
H      -45.52870000     -30.18370000     -74.19420000
C      -44.17320000     -30.11170000     -70.87140000
C      -43.59190000     -32.39050000     -70.36370000
C      -43.08620000     -31.75200000     -69.22220000
S      -44.70070000     -28.95880000     -72.11250000
S      -43.46720000     -29.98800000     -69.20700000
H      -42.44820000     -32.13860000     -68.45270000
