40
Properties=species:S:1:pos:R:3 #=T CELL(abcABC):=T 1.889726e+02=T 90.00000=T Traj:=T positionsangstrom=T Step:=T 0=T Bead:=T pbc="F F F"
C      -45.71450000     -37.19490000     -70.14850000
C      -45.16030000     -36.88400000     -71.43810000
C      -45.94900000     -36.31770000     -72.45690000
C      -47.29930000     -36.07570000     -72.21960000
C      -47.90740000     -36.46880000     -71.05400000
C      -47.08830000     -36.98010000     -69.99610000
H      -45.05210000     -37.63570000     -69.43910000
H      -45.51520000     -36.09890000     -73.47930000
H      -48.99470000     -36.23190000     -70.95460000
H      -47.45800000     -37.24510000     -68.99260000
C      -48.02890000     -35.23530000     -73.32960000
H      -48.93130000     -34.72060000     -72.97680000
H      -48.51300000     -35.91890000     -74.15310000
C      -43.69000000     -37.04150000     -71.56420000
H      -43.26870000     -37.27520000     -70.59930000
H      -43.31890000     -37.74220000     -72.27370000
S      -47.16340000     -33.93450000     -74.27250000
S      -42.84250000     -35.46620000     -72.20250000
C      -46.99880000     -32.57080000     -72.95960000
H      -47.84720000     -31.77640000     -72.98490000
H      -47.09650000     -33.16070000     -72.04470000
C      -43.03900000     -34.26890000     -70.87380000
H      -42.60050000     -33.42420000     -71.30650000
H      -42.40490000     -34.47600000     -69.95990000
C      -44.46250000     -33.84830000     -70.56160000
H      -45.07980000     -33.81720000     -71.46530000
H      -44.99890000     -34.61470000     -70.00640000
C      -45.57090000     -32.03010000     -73.08030000
H      -45.51750000     -31.54990000     -74.11360000
H      -44.87400000     -32.82190000     -72.93650000
C      -45.35170000     -31.04250000     -71.97140000
C      -45.39810000     -29.67280000     -72.17180000
C      -44.86370000     -31.34720000     -70.63420000
H      -45.79820000     -29.15760000     -72.99600000
C      -44.69740000     -30.24900000     -69.84050000
C      -44.62600000     -32.54740000     -69.86310000
C      -44.28170000     -32.32530000     -68.52220000
S      -45.04080000     -28.73970000     -70.66360000
S      -44.28020000     -30.55340000     -68.15440000
H      -43.96190000     -33.12770000     -67.90150000
