40
Properties=species:S:1:pos:R:3 #=T CELL(abcABC):=T 1.889726e+02=T 90.00000=T Traj:=T positionsangstrom=T Step:=T 0=T Bead:=T pbc="F F F"
C      -46.25150000     -36.68570000     -69.88180000
C      -45.42530000     -36.81560000     -70.98490000
C      -45.88690000     -36.31510000     -72.21440000
C      -47.16690000     -35.77310000     -72.31460000
C      -48.04890000     -35.73660000     -71.19600000
C      -47.54980000     -36.10740000     -70.00570000
H      -45.96600000     -37.07190000     -68.97270000
H      -45.26840000     -36.46900000     -73.11770000
H      -49.04930000     -35.31190000     -71.33800000
H      -48.09640000     -35.99680000     -69.09020000
C      -47.65270000     -35.43090000     -73.69670000
H      -48.67650000     -35.26520000     -73.67140000
H      -47.48730000     -36.33200000     -74.35840000
C      -44.03860000     -37.33530000     -70.75430000
H      -43.83340000     -37.53830000     -69.70570000
H      -43.82770000     -38.17850000     -71.44880000
S      -47.01900000     -33.97460000     -74.63810000
S      -42.70810000     -36.07730000     -71.29510000
C      -46.87400000     -32.75520000     -73.22860000
H      -47.64680000     -31.91790000     -73.29720000
H      -47.13570000     -33.26860000     -72.29740000
C      -43.03360000     -34.63500000     -70.19620000
H      -42.25570000     -33.92320000     -70.21680000
H      -43.14200000     -34.94190000     -69.17060000
C      -44.29950000     -33.87230000     -70.48110000
H      -44.50380000     -33.80070000     -71.54770000
H      -45.08560000     -34.43270000     -69.97790000
C      -45.44290000     -32.10970000     -73.35550000
H      -45.26940000     -31.70350000     -74.38620000
H      -44.66840000     -32.87360000     -73.25430000
C      -45.25990000     -31.15430000     -72.21070000
C      -45.72150000     -29.84830000     -72.33800000
C      -44.80670000     -31.35470000     -70.79580000
H      -46.09230000     -29.46980000     -73.33190000
C      -44.75210000     -30.16390000     -70.07360000
C      -44.30120000     -32.49410000     -70.00270000
C      -43.99180000     -32.13530000     -68.71310000
S      -45.32260000     -28.76790000     -71.03490000
S      -44.12640000     -30.37890000     -68.46440000
H      -43.53700000     -32.66110000     -67.84560000
