40
Properties=species:S:1:pos:R:3 #=T CELL(abcABC):=T 1.889726e+02=T 90.00000=T Traj:=T positionsangstrom=T Step:=T 0=T Bead:=T pbc="F F F"
C      -45.65700000     -37.52250000     -70.30450000
C      -45.09610000     -36.93850000     -71.47800000
C      -45.94510000     -36.27540000     -72.41510000
C      -47.30990000     -36.12900000     -72.12590000
C      -47.87120000     -36.60230000     -70.91620000
C      -47.04100000     -37.28650000     -70.02360000
H      -45.07380000     -38.06810000     -69.55780000
H      -45.50530000     -35.75030000     -73.31960000
H      -48.96990000     -36.30550000     -70.74390000
H      -47.44230000     -37.79940000     -69.07850000
C      -48.21640000     -35.26050000     -73.02940000
H      -48.94420000     -34.73150000     -72.44510000
H      -48.73940000     -35.95300000     -73.64700000
C      -43.58230000     -36.97060000     -71.64680000
H      -43.08060000     -37.23920000     -70.71470000
H      -43.31490000     -37.78230000     -72.40610000
S      -47.14670000     -34.03140000     -74.04490000
S      -42.85980000     -35.41940000     -72.43060000
C      -46.89910000     -32.58700000     -73.04910000
H      -47.64640000     -31.85230000     -73.31170000
H      -46.92440000     -32.86950000     -71.99110000
C      -43.01650000     -34.14240000     -71.00690000
H      -42.59660000     -33.16950000     -71.41440000
H      -42.48180000     -34.48260000     -70.09790000
C      -44.52310000     -33.90170000     -70.51090000
H      -45.15940000     -34.07260000     -71.34840000
H      -44.85970000     -34.69570000     -69.80720000
C      -45.46280000     -31.84200000     -73.25280000
H      -45.50520000     -31.26380000     -74.19230000
H      -44.66260000     -32.59010000     -73.31760000
C      -45.22130000     -30.92050000     -72.06620000
C      -45.44690000     -29.54580000     -72.11620000
C      -44.92950000     -31.29750000     -70.63520000
H      -45.61450000     -28.96010000     -73.00030000
C      -44.74800000     -30.18620000     -69.79300000
C      -44.58530000     -32.53860000     -69.94080000
C      -44.29530000     -32.23300000     -68.58710000
S      -45.15500000     -28.68010000     -70.58390000
S      -44.29310000     -30.54140000     -68.16740000
H      -43.99050000     -32.94630000     -67.77180000
