40
Properties=species:S:1:pos:R:3 #=T CELL(abcABC):=T 1.889726e+02=T 90.00000=T Traj:=T positionsangstrom=T Step:=T 0=T Bead:=T pbc="F F F"
C      -46.02840000     -36.68420000     -70.08320000
C      -45.31970000     -36.85040000     -71.30830000
C      -46.01240000     -36.55520000     -72.48750000
C      -47.28550000     -36.00660000     -72.50790000
C      -47.95410000     -35.87840000     -71.29860000
C      -47.36560000     -36.31580000     -70.08730000
H      -45.58160000     -36.64240000     -69.04390000
H      -45.50410000     -36.74160000     -73.41070000
H      -48.92700000     -35.38760000     -71.31110000
H      -47.88490000     -36.24900000     -69.15490000
C      -47.96860000     -35.43090000     -73.68630000
H      -49.07400000     -35.16170000     -73.44020000
H      -48.00940000     -36.07020000     -74.55670000
C      -43.88530000     -37.14790000     -71.31630000
H      -43.67980000     -37.62260000     -70.35660000
H      -43.67000000     -37.87270000     -72.08900000
S      -47.23510000     -33.86970000     -74.35560000
S      -42.66980000     -35.79260000     -71.69210000
C      -46.75960000     -32.86730000     -72.91990000
H      -47.58540000     -32.11340000     -72.73540000
H      -46.75960000     -33.55590000     -72.00150000
C      -42.84410000     -34.44350000     -70.47390000
H      -42.05650000     -33.65520000     -70.80110000
H      -42.41480000     -34.74730000     -69.52920000
C      -44.29070000     -33.82940000     -70.45380000
H      -44.66870000     -33.87760000     -71.43850000
H      -44.96880000     -34.55190000     -69.98630000
C      -45.44890000     -32.16110000     -73.18050000
H      -45.36400000     -31.70100000     -74.14810000
H      -44.63020000     -32.98360000     -73.11160000
C      -45.21240000     -31.13420000     -72.04930000
C      -45.55720000     -29.82390000     -72.25000000
C      -44.68780000     -31.37840000     -70.71090000
H      -46.03520000     -29.44230000     -73.16220000
C      -44.67860000     -30.22710000     -69.94210000
C      -44.43500000     -32.53190000     -69.84160000
C      -44.12610000     -32.24540000     -68.54180000
S      -45.20980000     -28.77990000     -70.82520000
S      -44.32460000     -30.45490000     -68.26580000
H      -44.03040000     -32.97150000     -67.81350000
