40
Properties=species:S:1:pos:R:3 #=T CELL(abcABC):=T 1.889726e+02=T 90.00000=T Traj:=T positionsangstrom=T Step:=T 0=T Bead:=T pbc="F F F"
C      -48.52820000     -32.50250000     -70.04890000
C      -47.10470000     -32.32530000     -70.00720000
C      -46.33930000     -33.49660000     -69.70690000
C      -46.98270000     -34.72770000     -69.50340000
C      -48.34920000     -34.71140000     -69.26360000
C      -49.18880000     -33.62830000     -69.59240000
H      -49.13320000     -31.61290000     -70.25370000
H      -45.20080000     -33.45900000     -69.79750000
H      -48.87100000     -35.51740000     -68.86060000
H      -50.23210000     -33.74390000     -69.27570000
C      -46.16270000     -35.95490000     -69.36090000
H      -46.47700000     -36.66280000     -68.56810000
H      -45.06920000     -35.73150000     -69.18710000
C      -46.53040000     -30.95440000     -70.29870000
H      -46.94010000     -30.22350000     -69.66650000
H      -45.45630000     -30.89000000     -70.10130000
S      -46.36520000     -36.93500000     -71.00310000
S      -46.93220000     -30.42330000     -72.13600000
C      -46.20100000     -35.88210000     -72.50730000
H      -46.87470000     -36.21820000     -73.29970000
H      -46.68670000     -34.93250000     -72.24450000
C      -46.63200000     -31.87630000     -73.28560000
H      -47.40360000     -31.83640000     -74.03890000
H      -46.89760000     -32.72380000     -72.65520000
C      -45.29900000     -32.06880000     -74.02450000
H      -45.27220000     -33.03200000     -74.52030000
H      -45.20980000     -31.30460000     -74.73710000
C      -44.83070000     -35.54700000     -73.12500000
H      -45.11280000     -35.13990000     -74.12390000
H      -44.35030000     -36.51390000     -73.42860000
C      -43.93420000     -34.71970000     -72.26470000
C      -43.07270000     -35.25310000     -71.33380000
C      -43.77150000     -33.26780000     -72.25070000
H      -43.01380000     -36.31580000     -71.12560000
C      -42.76880000     -32.88310000     -71.33000000
C      -44.14810000     -32.12500000     -73.04700000
C      -43.49300000     -30.99230000     -72.76680000
S      -42.14700000     -34.12570000     -70.34070000
S      -42.34810000     -31.11900000     -71.40680000
H      -43.59840000     -30.01630000     -73.33210000
