40
Properties=species:S:1:pos:R:3 #=T CELL(abcABC):=T 1.889726e+02=T 90.00000=T Traj:=T positionsangstrom=T Step:=T 0=T Bead:=T pbc="F F F"
C      -45.26540000     -37.43530000     -70.36850000
C      -44.85170000     -36.77700000     -71.57360000
C      -45.81670000     -36.39290000     -72.50330000
C      -47.18310000     -36.47950000     -72.12270000
C      -47.59550000     -36.94930000     -70.85320000
C      -46.58750000     -37.46070000     -70.05930000
H      -44.58640000     -37.91210000     -69.64080000
H      -45.66970000     -35.87670000     -73.47660000
H      -48.65890000     -37.02780000     -70.62020000
H      -46.84700000     -37.67570000     -68.95020000
C      -48.19990000     -35.87550000     -73.08990000
H      -49.20390000     -35.73440000     -72.65090000
H      -48.32320000     -36.51220000     -73.96260000
C      -43.36050000     -36.62420000     -71.91470000
H      -42.72580000     -36.57920000     -70.99570000
H      -42.96800000     -37.43540000     -72.55510000
S      -47.79750000     -34.20890000     -73.70750000
S      -43.04930000     -35.10890000     -72.86000000
C      -47.23170000     -33.17660000     -72.26120000
H      -48.12980000     -32.57100000     -71.82630000
H      -46.82310000     -33.92290000     -71.55270000
C      -42.88750000     -33.69990000     -71.58540000
H      -43.11080000     -32.79320000     -72.16340000
H      -41.87250000     -33.65000000     -71.13930000
C      -43.99630000     -33.72130000     -70.54410000
H      -44.94900000     -33.82360000     -71.07970000
H      -43.97640000     -34.59410000     -69.86080000
C      -46.12930000     -32.18740000     -72.72220000
H      -46.54550000     -31.65790000     -73.55880000
H      -45.15510000     -32.69050000     -72.96720000
C      -45.71050000     -31.14440000     -71.64330000
C      -46.18720000     -29.85130000     -71.80470000
C      -44.78220000     -31.25970000     -70.54190000
H      -46.82250000     -29.49830000     -72.63980000
C      -44.72240000     -30.03180000     -69.79440000
C      -44.06960000     -32.29520000     -69.89010000
C      -43.39780000     -31.86140000     -68.78370000
S      -45.59380000     -28.71480000     -70.60970000
S      -43.75650000     -30.19010000     -68.37800000
H      -42.83190000     -32.44950000     -68.10260000
