40
Properties=species:S:1:pos:R:3 #=T CELL(abcABC):=T 1.889726e+02=T 90.00000=T Traj:=T positionsangstrom=T Step:=T 0=T Bead:=T pbc="F F F"
C      -45.49250000     -37.64720000     -70.32500000
C      -44.93200000     -36.90100000     -71.39680000
C      -45.74990000     -36.13420000     -72.27220000
C      -47.11930000     -35.99520000     -72.00870000
C      -47.71830000     -36.65130000     -70.89150000
C      -46.88520000     -37.48410000     -70.08370000
H      -44.84390000     -38.23100000     -69.62320000
H      -45.31890000     -35.58690000     -73.06750000
H      -48.76720000     -36.62700000     -70.63510000
H      -47.38580000     -37.96480000     -69.19970000
C      -48.04220000     -35.20490000     -72.92940000
H      -48.75220000     -34.61920000     -72.25720000
H      -48.57550000     -35.92500000     -73.53000000
C      -43.49160000     -37.02720000     -71.83780000
H      -42.92140000     -37.34790000     -70.99680000
H      -43.45300000     -37.83200000     -72.54900000
S      -47.22930000     -33.97650000     -74.00840000
S      -42.90560000     -35.44590000     -72.47780000
C      -46.98710000     -32.64710000     -72.71190000
H      -47.78920000     -31.97150000     -72.73190000
H      -47.02960000     -32.99110000     -71.66840000
C      -42.96930000     -34.14040000     -71.18230000
H      -42.46340000     -33.30740000     -71.70420000
H      -42.31000000     -34.41000000     -70.43870000
C      -44.44160000     -33.80440000     -70.59120000
H      -45.28270000     -33.87880000     -71.31720000
H      -44.50690000     -34.49840000     -69.75810000
C      -45.64430000     -31.96560000     -73.09340000
H      -45.59370000     -31.63030000     -74.06220000
H      -44.77320000     -32.70220000     -73.19060000
C      -45.33580000     -30.93550000     -72.02100000
C      -45.61980000     -29.59790000     -72.16100000
C      -44.94930000     -31.24200000     -70.65330000
H      -45.77920000     -29.10330000     -73.12160000
C      -44.90010000     -30.11820000     -69.77920000
C      -44.49690000     -32.43550000     -70.00840000
C      -44.11680000     -32.23480000     -68.70210000
S      -45.32410000     -28.65390000     -70.68650000
S      -44.38950000     -30.56870000     -68.16270000
H      -43.81360000     -32.93850000     -67.81850000
