40
Properties=species:S:1:pos:R:3 #=T CELL(abcABC):=T 1.889726e+02=T 90.00000=T Traj:=T positionsangstrom=T Step:=T 0=T Bead:=T pbc="F F F"
C      -47.56340000     -31.41150000     -72.28980000
C      -47.80700000     -32.51180000     -73.12980000
C      -48.28030000     -33.69460000     -72.58330000
C      -48.60190000     -33.71300000     -71.21150000
C      -48.43480000     -32.56630000     -70.42940000
C      -47.84130000     -31.44620000     -70.97880000
H      -47.02180000     -30.53150000     -72.61290000
H      -48.53280000     -34.50470000     -73.24800000
H      -48.80740000     -32.67010000     -69.38370000
H      -47.61010000     -30.64150000     -70.37350000
C      -49.01370000     -35.01340000     -70.51850000
H      -49.81500000     -35.50630000     -71.22590000
H      -49.41400000     -34.86370000     -69.52500000
C      -47.58490000     -32.42200000     -74.63050000
H      -48.26430000     -33.02260000     -75.18220000
H      -47.63020000     -31.39060000     -75.02900000
S      -47.64570000     -36.26120000     -70.61630000
S      -45.86210000     -33.09060000     -74.93650000
C      -46.45260000     -35.22140000     -69.74700000
H      -46.99260000     -34.61220000     -69.10720000
H      -45.82420000     -35.87350000     -69.11950000
C      -44.72800000     -32.45130000     -73.58980000
H      -45.25400000     -32.00050000     -72.70660000
H      -44.09150000     -31.65750000     -74.04010000
C      -43.73640000     -33.50950000     -73.07860000
H      -44.30110000     -34.41700000     -72.83610000
H      -43.04290000     -33.79650000     -73.87010000
C      -45.55380000     -34.49510000     -70.74980000
H      -46.13750000     -33.79160000     -71.27120000
H      -45.26690000     -35.25780000     -71.45600000
C      -44.43950000     -33.85180000     -69.94940000
C      -44.28510000     -33.97460000     -68.62430000
C      -43.28410000     -33.19610000     -70.56560000
H      -44.89830000     -34.36340000     -67.83470000
C      -42.28320000     -32.78760000     -69.60280000
C      -42.92040000     -32.98450000     -71.94120000
C      -41.60740000     -32.48630000     -72.06980000
S      -42.84070000     -33.20110000     -68.01550000
S      -40.96500000     -32.14290000     -70.49600000
H      -41.25550000     -32.10950000     -73.05520000
