40
Properties=species:S:1:pos:R:3 #=T CELL(abcABC):=T 1.889726e+02=T 90.00000=T Traj:=T positionsangstrom=T Step:=T 0=T Bead:=T pbc="F F F"
C      -44.11680000     -35.35160000     -72.81540000
C      -44.28950000     -35.66450000     -71.47150000
C      -45.56710000     -35.89290000     -70.89540000
C      -46.73700000     -35.73270000     -71.68830000
C      -46.54400000     -35.39910000     -73.07730000
C      -45.28920000     -35.27750000     -73.62710000
H      -43.09910000     -35.12050000     -73.18690000
H      -45.60390000     -36.25060000     -69.82430000
H      -47.37630000     -35.34050000     -73.73430000
H      -45.06530000     -34.82710000     -74.55780000
C      -48.09730000     -35.83390000     -71.05490000
H      -48.12720000     -36.45140000     -70.09730000
H      -48.76360000     -36.38140000     -71.72170000
C      -43.10280000     -35.92150000     -70.62210000
H      -43.43640000     -36.55610000     -69.81110000
H      -42.31430000     -36.51450000     -71.17760000
S      -48.86390000     -34.18750000     -70.49950000
S      -42.25870000     -34.40070000     -69.81780000
C      -47.53780000     -33.35380000     -69.41540000
H      -47.73860000     -33.68340000     -68.36560000
H      -46.65310000     -33.85060000     -69.76780000
C      -43.74880000     -33.59540000     -68.81880000
H      -43.70000000     -33.87740000     -67.78060000
H      -44.58300000     -34.17580000     -69.24060000
C      -43.77520000     -32.09080000     -68.96200000
H      -44.61900000     -31.59130000     -68.45850000
H      -42.88070000     -31.69520000     -68.56040000
C      -47.38590000     -31.90050000     -69.68410000
H      -46.81020000     -31.41470000     -68.88520000
H      -48.27650000     -31.35490000     -69.77650000
C      -46.61660000     -31.79200000     -70.98120000
C      -47.29870000     -31.57520000     -72.16850000
C      -45.16750000     -31.82430000     -71.16060000
H      -48.38420000     -31.67720000     -72.24220000
C      -44.87040000     -31.57140000     -72.50390000
C      -43.89330000     -31.74460000     -70.42870000
C      -42.83480000     -31.33280000     -71.17560000
S      -46.24560000     -31.46470000     -73.50140000
S      -43.23810000     -31.25920000     -72.92190000
H      -41.88170000     -31.16690000     -70.78360000
