40
Properties=species:S:1:pos:R:3 #=T CELL(abcABC):=T 1.889726e+02=T 90.00000=T Traj:=T positionsangstrom=T Step:=T 0=T Bead:=T pbc="F F F"
C      -44.07840000     -35.20290000     -72.78700000
C      -44.26050000     -35.48690000     -71.40600000
C      -45.53050000     -35.67570000     -70.78850000
C      -46.67340000     -35.51560000     -71.61240000
C      -46.50350000     -35.23340000     -72.98560000
C      -45.25060000     -35.07960000     -73.57270000
H      -43.12870000     -35.26850000     -73.25170000
H      -45.57250000     -35.98490000     -69.76810000
H      -47.41870000     -35.13010000     -73.62530000
H      -45.07610000     -35.00270000     -74.67890000
C      -48.02480000     -35.79170000     -70.96250000
H      -48.10650000     -36.41100000     -70.03250000
H      -48.78090000     -36.32440000     -71.64670000
C      -42.99820000     -35.76620000     -70.60560000
H      -43.22070000     -36.49600000     -69.87290000
H      -42.24400000     -36.12070000     -71.30570000
S      -48.74020000     -34.10720000     -70.56700000
S      -42.16430000     -34.38540000     -69.81510000
C      -47.65230000     -33.37300000     -69.29190000
H      -48.13400000     -33.37100000     -68.24290000
H      -46.84340000     -34.02920000     -69.25500000
C      -43.49660000     -33.64350000     -68.71590000
H      -43.23460000     -33.74770000     -67.66030000
H      -44.46090000     -34.23090000     -68.88330000
C      -43.88730000     -32.15640000     -68.97540000
H      -44.80430000     -31.93690000     -68.36580000
H      -43.05730000     -31.54360000     -68.54870000
C      -47.19610000     -31.96700000     -69.64910000
H      -46.45260000     -31.54780000     -68.91170000
H      -48.11760000     -31.33480000     -69.47240000
C      -46.70120000     -31.93250000     -71.05950000
C      -47.46450000     -31.81390000     -72.21030000
C      -45.27800000     -31.75280000     -71.27680000
H      -48.53110000     -31.91430000     -72.38850000
C      -45.01150000     -31.50770000     -72.59140000
C      -44.02010000     -31.90440000     -70.48570000
C      -42.92930000     -31.57420000     -71.21450000
S      -46.39180000     -31.71330000     -73.63070000
S      -43.28320000     -31.28550000     -72.90390000
H      -41.97970000     -31.51240000     -70.74460000
