40
Properties=species:S:1:pos:R:3 #=T CELL(abcABC):=T 1.889726e+02=T 90.00000=T Traj:=T positionsangstrom=T Step:=T 0=T Bead:=T pbc="F F F"
C      -43.89560000     -34.98700000     -72.56210000
C      -43.90640000     -35.53870000     -71.29160000
C      -45.17060000     -35.87010000     -70.79450000
C      -46.36280000     -35.62660000     -71.42240000
C      -46.30850000     -35.36620000     -72.74340000
C      -45.07060000     -35.02260000     -73.31260000
H      -43.00440000     -34.67880000     -73.03570000
H      -45.22880000     -36.19450000     -69.80260000
H      -47.21400000     -35.27460000     -73.32970000
H      -45.02590000     -34.70390000     -74.36070000
C      -47.62830000     -35.90290000     -70.74040000
H      -47.60070000     -36.68450000     -69.90190000
H      -48.39460000     -36.33830000     -71.41520000
C      -42.70450000     -35.70650000     -70.48920000
H      -42.89320000     -36.47020000     -69.69920000
H      -41.84130000     -36.05470000     -71.00350000
S      -48.45500000     -34.30680000     -70.16210000
S      -42.03660000     -34.27540000     -69.41960000
C      -47.17910000     -33.41330000     -69.17820000
H      -47.35250000     -33.65200000     -68.06620000
H      -46.22900000     -33.73640000     -69.43450000
C      -43.61660000     -33.36520000     -68.95490000
H      -43.66020000     -33.43180000     -67.89920000
H      -44.52810000     -33.89800000     -69.29720000
C      -43.62140000     -31.94620000     -69.49650000
H      -44.20220000     -31.33540000     -68.82240000
H      -42.61810000     -31.49450000     -69.41280000
C      -47.19500000     -31.92260000     -69.51300000
H      -46.59630000     -31.30570000     -68.86070000
H      -48.24930000     -31.62390000     -69.48890000
C      -46.80050000     -31.70410000     -70.94140000
C      -47.72630000     -31.54520000     -71.92020000
C      -45.46020000     -31.78040000     -71.50070000
H      -48.80210000     -31.48940000     -71.82780000
C      -45.42290000     -31.73160000     -72.89700000
C      -44.09230000     -31.84990000     -70.92650000
C      -43.14270000     -31.69260000     -71.95490000
S      -47.02830000     -31.49890000     -73.60290000
S      -43.79270000     -31.62070000     -73.54190000
H      -42.09230000     -31.67990000     -71.70520000
