40
Properties=species:S:1:pos:R:3 #=T CELL(abcABC):=T 1.889726e+02=T 90.00000=T Traj:=T positionsangstrom=T Step:=T 0=T Bead:=T pbc="F F F"
C      -44.17970000     -35.59700000     -72.81050000
C      -44.31580000     -35.92160000     -71.43490000
C      -45.59610000     -35.93650000     -70.80780000
C      -46.73020000     -35.79710000     -71.65740000
C      -46.58870000     -35.43960000     -72.97170000
C      -45.31330000     -35.35130000     -73.56620000
H      -43.13260000     -35.55690000     -73.21860000
H      -45.56730000     -36.07230000     -69.69890000
H      -47.45450000     -35.27280000     -73.54400000
H      -45.18790000     -35.12160000     -74.61630000
C      -48.19010000     -35.92640000     -71.04140000
H      -48.09710000     -36.52780000     -70.15280000
H      -48.79940000     -36.30640000     -71.76720000
C      -43.19180000     -36.10470000     -70.50270000
H      -43.32480000     -36.91070000     -69.71990000
H      -42.27700000     -36.43640000     -70.98040000
S      -48.85540000     -34.29620000     -70.57950000
S      -42.55590000     -34.46350000     -69.84670000
C      -47.61750000     -33.54380000     -69.47460000
H      -47.98020000     -33.57510000     -68.46570000
H      -46.60800000     -34.03470000     -69.38740000
C      -43.94490000     -33.52300000     -68.94950000
H      -43.94790000     -33.81520000     -67.85860000
H      -44.75620000     -33.94950000     -69.52220000
C      -43.75860000     -32.02260000     -69.02470000
H      -44.52270000     -31.52160000     -68.43320000
H      -42.80150000     -31.85260000     -68.52610000
C      -47.13340000     -32.07960000     -69.66490000
H      -46.45070000     -31.90310000     -68.83000000
H      -48.05870000     -31.47160000     -69.53930000
C      -46.46060000     -31.69540000     -70.94540000
C      -47.27640000     -31.50130000     -72.08890000
C      -45.03230000     -31.54330000     -71.23030000
H      -48.37190000     -31.40130000     -72.02670000
C      -44.81170000     -31.10060000     -72.55040000
C      -43.83880000     -31.62110000     -70.45400000
C      -42.71220000     -31.45970000     -71.16890000
S      -46.23970000     -31.19360000     -73.51360000
S      -43.03220000     -31.20240000     -72.90280000
H      -41.67560000     -31.47660000     -70.89850000
