40
Properties=species:S:1:pos:R:3 #=T CELL(abcABC):=T 1.889726e+02=T 90.00000=T Traj:=T positionsangstrom=T Step:=T 0=T Bead:=T pbc="F F F"
C      -48.20330000     -31.13450000     -72.09640000
C      -47.93750000     -32.17400000     -73.07160000
C      -48.28490000     -33.52050000     -72.70100000
C      -48.86160000     -33.79530000     -71.41400000
C      -49.23450000     -32.75070000     -70.58220000
C      -48.80720000     -31.47980000     -70.91880000
H      -47.87300000     -30.09210000     -72.15830000
H      -48.08440000     -34.34660000     -73.36560000
H      -49.65410000     -32.97230000     -69.63970000
H      -48.96760000     -30.61540000     -70.23980000
C      -49.22120000     -35.23980000     -70.91120000
H      -50.02250000     -35.76910000     -71.49340000
H      -49.47270000     -35.12330000     -69.83240000
C      -47.27000000     -31.86710000     -74.40400000
H      -47.81020000     -32.21930000     -75.28560000
H      -47.11600000     -30.82090000     -74.33310000
S      -47.66450000     -36.36710000     -71.08790000
S      -45.64770000     -32.66580000     -74.60030000
C      -46.34730000     -35.56860000     -70.09500000
H      -46.98200000     -34.98350000     -69.38790000
H      -45.72740000     -36.28370000     -69.63350000
C      -44.69370000     -32.00650000     -73.25900000
H      -45.30860000     -32.19550000     -72.31070000
H      -44.62880000     -30.92610000     -73.37570000
C      -43.32850000     -32.76510000     -73.20940000
H      -43.35080000     -33.88670000     -73.50600000
H      -42.69340000     -32.34040000     -73.97380000
C      -45.35460000     -34.69360000     -70.97160000
H      -45.94270000     -33.93330000     -71.51560000
H      -45.01320000     -35.34770000     -71.71860000
C      -44.26480000     -34.06880000     -70.15800000
C      -44.19040000     -34.43000000     -68.78940000
C      -43.21610000     -33.24530000     -70.60100000
H      -44.80600000     -35.06650000     -68.15550000
C      -42.30130000     -33.10000000     -69.56480000
C      -42.69630000     -32.70640000     -71.84990000
C      -41.50530000     -32.08950000     -71.65060000
S      -42.63690000     -33.90590000     -68.08680000
S      -40.87190000     -32.24940000     -70.06580000
H      -40.87300000     -31.54470000     -72.40980000
