40
Properties=species:S:1:pos:R:3 #=T CELL(abcABC):=T 1.889726e+02=T 90.00000=T Traj:=T positionsangstrom=T Step:=T 0=T Bead:=T pbc="F F F"
C      -48.30000000     -32.36940000     -69.66030000
C      -47.00800000     -32.39220000     -70.00900000
C      -46.34800000     -33.61710000     -69.98910000
C      -46.97380000     -34.80080000     -69.58170000
C      -48.34580000     -34.75650000     -69.30970000
C      -48.96970000     -33.54060000     -69.25180000
H      -48.90400000     -31.50030000     -69.74250000
H      -45.25440000     -33.64940000     -70.12980000
H      -48.92380000     -35.64190000     -69.08450000
H      -50.07700000     -33.49520000     -69.18060000
C      -46.04780000     -35.99440000     -69.50120000
H      -46.34720000     -36.68580000     -68.70670000
H      -45.08330000     -35.50640000     -69.46550000
C      -46.25400000     -31.12730000     -70.43740000
H      -46.35310000     -30.33370000     -69.67110000
H      -45.19520000     -31.44840000     -70.54740000
S      -46.19940000     -37.03500000     -70.97900000
S      -46.70810000     -30.21860000     -72.00890000
C      -46.47070000     -35.67870000     -72.35100000
H      -47.34960000     -36.07410000     -72.95660000
H      -46.81390000     -34.82510000     -71.81160000
C      -46.82760000     -31.75930000     -73.18920000
H      -47.61920000     -31.53200000     -73.88990000
H      -47.04980000     -32.60880000     -72.52590000
C      -45.47860000     -31.90690000     -73.92740000
H      -45.47690000     -32.73520000     -74.61240000
H      -45.42370000     -30.93610000     -74.58730000
C      -45.26540000     -35.40290000     -73.14920000
H      -45.47000000     -34.68640000     -73.95480000
H      -44.84340000     -36.29670000     -73.53790000
C      -44.15540000     -34.70300000     -72.32000000
C      -43.38030000     -35.33920000     -71.36440000
C      -43.82440000     -33.23250000     -72.30310000
H      -43.34160000     -36.40440000     -71.26740000
C      -42.74680000     -32.97160000     -71.48900000
C      -44.26240000     -32.02720000     -72.98790000
C      -43.57510000     -30.90040000     -72.62990000
S      -42.21620000     -34.27460000     -70.53310000
S      -42.28680000     -31.27560000     -71.47990000
H      -43.73680000     -29.84850000     -73.07550000
