40
Properties=species:S:1:pos:R:3 #=T CELL(abcABC):=T 1.889726e+02=T 90.00000=T Traj:=T positionsangstrom=T Step:=T 0=T Bead:=T pbc="F F F"
C      -43.97150000     -35.12440000     -72.40020000
C      -44.04180000     -35.68580000     -71.07950000
C      -45.29340000     -35.99790000     -70.54200000
C      -46.49250000     -35.75690000     -71.29760000
C      -46.39820000     -35.08000000     -72.50240000
C      -45.12040000     -34.76390000     -73.06460000
H      -42.96750000     -34.94480000     -72.70920000
H      -45.22670000     -36.41600000     -69.45900000
H      -47.28800000     -34.84660000     -73.05730000
H      -45.00770000     -34.29300000     -74.06960000
C      -47.83170000     -36.06670000     -70.69930000
H      -47.85010000     -36.77080000     -69.90250000
H      -48.70350000     -36.37980000     -71.42380000
C      -42.80000000     -36.04190000     -70.39450000
H      -42.92240000     -36.59220000     -69.44390000
H      -42.12070000     -36.65860000     -71.01480000
S      -48.55750000     -34.39720000     -69.95430000
S      -41.85060000     -34.49530000     -70.11050000
C      -47.18710000     -33.58390000     -68.95470000
H      -47.31770000     -33.67550000     -67.87770000
H      -46.24800000     -34.07850000     -69.19770000
C      -43.11460000     -33.42720000     -69.23600000
H      -42.68820000     -33.29460000     -68.26390000
H      -44.03880000     -34.01260000     -69.00680000
C      -43.29740000     -32.03260000     -69.82280000
H      -43.93550000     -31.38340000     -69.18990000
H      -42.31480000     -31.51430000     -69.78600000
C      -46.91990000     -32.05940000     -69.33960000
H      -45.99300000     -31.70320000     -68.82620000
H      -47.81390000     -31.48920000     -69.01820000
C      -46.63620000     -31.76920000     -70.82510000
C      -47.67130000     -31.56360000     -71.67260000
C      -45.33720000     -31.66920000     -71.49340000
H      -48.68690000     -31.34550000     -71.32220000
C      -45.56780000     -31.42830000     -72.84970000
C      -43.93320000     -31.81120000     -71.17030000
C      -43.07770000     -31.62650000     -72.26740000
S      -47.19610000     -31.23490000     -73.33740000
S      -44.01350000     -31.34950000     -73.75210000
H      -42.00260000     -31.64630000     -72.43010000
