40
Properties=species:S:1:pos:R:3 #=T CELL(abcABC):=T 1.889726e+02=T 90.00000=T Traj:=T positionsangstrom=T Step:=T 0=T Bead:=T pbc="F F F"
C      -48.17990000     -30.89930000     -71.79670000
C      -47.81070000     -31.71010000     -72.93490000
C      -48.02940000     -33.09250000     -72.86660000
C      -48.62510000     -33.64450000     -71.70950000
C      -48.98380000     -32.84700000     -70.65770000
C      -48.63050000     -31.48160000     -70.61750000
H      -48.07300000     -29.80840000     -71.78800000
H      -47.78700000     -33.61610000     -73.78610000
H      -49.57510000     -33.20470000     -69.80210000
H      -48.91320000     -30.85230000     -69.78860000
C      -48.87200000     -35.12080000     -71.76310000
H      -48.77290000     -35.47780000     -72.80830000
H      -49.85340000     -35.35520000     -71.49120000
C      -47.30610000     -31.05860000     -74.20650000
H      -47.94800000     -31.28840000     -75.05400000
H      -47.24400000     -29.97650000     -74.01340000
S      -47.94300000     -36.10820000     -70.53340000
S      -45.56280000     -31.53450000     -74.83090000
C      -46.15090000     -35.58640000     -70.70740000
H      -45.60620000     -36.26840000     -70.04860000
H      -45.82390000     -35.74970000     -71.72590000
C      -44.57120000     -31.69500000     -73.25960000
H      -45.16240000     -31.28440000     -72.38390000
H      -43.62960000     -31.12220000     -73.27760000
C      -44.21560000     -33.17600000     -72.85100000
H      -45.19940000     -33.49650000     -72.52810000
H      -43.95150000     -33.75270000     -73.70430000
C      -45.88440000     -34.20910000     -70.11270000
H      -46.55810000     -34.04830000     -69.24130000
H      -46.18530000     -33.44420000     -70.90380000
C      -44.43220000     -34.15610000     -69.62620000
C      -44.14060000     -34.35430000     -68.29930000
C      -43.30510000     -33.79420000     -70.42660000
H      -44.84510000     -34.57840000     -67.52280000
C      -42.08750000     -33.79920000     -69.76090000
C      -43.13340000     -33.29410000     -71.78880000
C      -41.79700000     -33.07110000     -72.14670000
S      -42.35260000     -34.31750000     -67.98840000
S      -40.73020000     -33.17640000     -70.73970000
H      -41.38640000     -32.56750000     -73.00130000
