40
Properties=species:S:1:pos:R:3 #=T CELL(abcABC):=T 1.889726e+02=T 90.00000=T Traj:=T positionsangstrom=T Step:=T 0=T Bead:=T pbc="F F F"
C      -48.20640000     -32.17600000     -69.44760000
C      -46.89470000     -32.21520000     -69.79280000
C      -46.24330000     -33.42300000     -69.82400000
C      -46.85260000     -34.66870000     -69.55730000
C      -48.15940000     -34.53160000     -69.01870000
C      -48.85920000     -33.36710000     -69.10230000
H      -48.83800000     -31.32540000     -69.50220000
H      -45.30290000     -33.36180000     -70.27780000
H      -48.65290000     -35.47210000     -68.68530000
H      -49.87180000     -33.25150000     -68.69360000
C      -46.23690000     -36.04350000     -69.55450000
H      -46.77460000     -36.75060000     -68.91020000
H      -45.24930000     -35.99900000     -69.11930000
C      -46.09380000     -30.98510000     -70.21750000
H      -46.27950000     -30.09760000     -69.56270000
H      -45.06580000     -31.31180000     -70.32260000
S      -46.12230000     -37.07190000     -71.13440000
S      -46.70910000     -30.27380000     -71.83260000
C      -46.55110000     -35.91580000     -72.52760000
H      -47.03630000     -36.51970000     -73.30950000
H      -47.18610000     -35.16910000     -72.06860000
C      -46.84390000     -31.61420000     -73.08800000
H      -47.63970000     -31.33700000     -73.82960000
H      -47.20580000     -32.57500000     -72.70350000
C      -45.57250000     -31.80150000     -73.91750000
H      -45.70580000     -32.55990000     -74.65330000
H      -45.28140000     -30.84790000     -74.51050000
C      -45.40480000     -35.19140000     -73.28370000
H      -45.86870000     -34.31780000     -73.76800000
H      -45.10070000     -35.87730000     -74.09340000
C      -44.33700000     -34.68690000     -72.34750000
C      -43.52460000     -35.47220000     -71.52670000
C      -43.94070000     -33.25280000     -72.30140000
H      -43.60950000     -36.54020000     -71.43340000
C      -42.82940000     -33.04850000     -71.49470000
C      -44.34210000     -32.02340000     -73.01360000
C      -43.46580000     -30.98900000     -72.72170000
S      -42.20850000     -34.57180000     -70.76570000
S      -42.29240000     -31.33430000     -71.54340000
H      -43.59930000     -29.91460000     -73.06400000
