40
Properties=species:S:1:pos:R:3 #=T CELL(abcABC):=T 1.889726e+02=T 90.00000=T Traj:=T positionsangstrom=T Step:=T 0=T Bead:=T pbc="F F F"
C      -45.17290000     -38.06460000     -72.01060000
C      -45.11440000     -36.77470000     -72.53280000
C      -46.20030000     -35.90350000     -72.33650000
C      -47.37520000     -36.35560000     -71.66940000
C      -47.49310000     -37.66780000     -71.22380000
C      -46.32350000     -38.49770000     -71.31940000
H      -44.33840000     -38.72460000     -72.06360000
H      -46.19350000     -34.94690000     -72.67320000
H      -48.34330000     -38.19230000     -70.86940000
H      -46.20500000     -39.49260000     -70.87300000
C      -48.53140000     -35.40770000     -71.42150000
H      -48.73720000     -35.16370000     -70.31750000
H      -49.47650000     -35.85270000     -71.74960000
C      -44.06330000     -36.51570000     -73.55900000
H      -43.21220000     -37.26690000     -73.46580000
H      -44.44300000     -36.78580000     -74.50300000
S      -48.34390000     -33.82390000     -72.36930000
S      -43.64970000     -34.76200000     -73.66700000
C      -47.43310000     -32.63720000     -71.26020000
H      -48.18530000     -32.05390000     -70.62830000
H      -46.78100000     -33.16660000     -70.53180000
C      -42.89910000     -34.27680000     -71.97470000
H      -42.18950000     -33.38920000     -72.16850000
H      -42.43820000     -35.15040000     -71.64020000
C      -44.03660000     -33.79640000     -71.03680000
H      -44.93880000     -33.80160000     -71.56200000
H      -44.19500000     -34.48560000     -70.16290000
C      -46.65830000     -31.65730000     -72.08180000
H      -47.28220000     -30.97860000     -72.63550000
H      -45.96290000     -32.12450000     -72.86900000
C      -45.76550000     -30.78960000     -71.17430000
C      -46.14360000     -29.54580000     -70.87900000
C      -44.53950000     -31.20950000     -70.55090000
H      -47.09370000     -29.21930000     -71.21150000
C      -44.19850000     -30.18180000     -69.62900000
C      -43.70250000     -32.39710000     -70.47970000
C      -42.79930000     -32.22600000     -69.44590000
S      -45.10980000     -28.69690000     -69.81640000
S      -42.82390000     -30.64150000     -68.71960000
H      -42.10590000     -32.97770000     -68.94700000
