40
Properties=species:S:1:pos:R:3 #=T CELL(abcABC):=T 1.889726e+02=T 90.00000=T Traj:=T positionsangstrom=T Step:=T 0=T Bead:=T pbc="F F F"
C      -44.63740000     -34.79390000     -72.93820000
C      -44.26870000     -35.46450000     -71.74770000
C      -45.28720000     -35.77220000     -70.84440000
C      -46.70510000     -35.66890000     -71.12480000
C      -46.99640000     -34.96740000     -72.29160000
C      -45.98950000     -34.47450000     -73.15850000
H      -43.88440000     -34.46420000     -73.58700000
H      -45.06050000     -36.40520000     -69.98880000
H      -47.98540000     -34.55080000     -72.37380000
H      -46.26680000     -33.84260000     -74.02490000
C      -47.74060000     -36.02880000     -70.05820000
H      -47.23070000     -36.72250000     -69.37900000
H      -48.70410000     -36.55100000     -70.47400000
C      -42.83220000     -35.90670000     -71.48400000
H      -42.72420000     -36.76240000     -70.87930000
H      -42.41660000     -36.17710000     -72.47610000
S      -48.18020000     -34.52860000     -69.05950000
S      -41.77580000     -34.58740000     -70.78080000
C      -46.55320000     -33.68230000     -68.72560000
H      -46.30220000     -33.81500000     -67.63320000
H      -45.69870000     -34.29410000     -69.18330000
C      -42.87620000     -33.77730000     -69.57980000
H      -42.50020000     -33.84570000     -68.57700000
H      -43.83290000     -34.29820000     -69.57350000
C      -43.12890000     -32.26790000     -69.96710000
H      -43.76460000     -31.86930000     -69.15480000
H      -42.11210000     -31.74970000     -70.00500000
C      -46.49190000     -32.19080000     -69.07630000
H      -45.60620000     -31.72770000     -68.53240000
H      -47.28440000     -31.57210000     -68.59890000
C      -46.49200000     -31.92340000     -70.57410000
C      -47.58960000     -31.51720000     -71.40480000
C      -45.30800000     -31.79290000     -71.41190000
H      -48.58450000     -31.44440000     -70.89520000
C      -45.53820000     -31.47150000     -72.73560000
C      -43.86170000     -31.98980000     -71.26690000
C      -43.19250000     -31.70070000     -72.42230000
S      -47.21720000     -31.14290000     -73.04900000
S      -44.18020000     -31.23240000     -73.75850000
H      -42.07340000     -31.66050000     -72.47840000
