40
Properties=species:S:1:pos:R:3 #=T CELL(abcABC):=T 1.889726e+02=T 90.00000=T Traj:=T positionsangstrom=T Step:=T 0=T Bead:=T pbc="F F F"
C      -44.60850000     -35.26110000     -73.02290000
C      -44.31480000     -35.82510000     -71.76160000
C      -45.37910000     -36.03400000     -70.86940000
C      -46.67580000     -35.70560000     -71.26950000
C      -46.91890000     -35.24440000     -72.56990000
C      -45.90360000     -34.88440000     -73.41920000
H      -43.78620000     -34.95270000     -73.58280000
H      -45.23850000     -36.30030000     -69.78950000
H      -47.90450000     -35.06830000     -72.97010000
H      -46.08210000     -34.30150000     -74.31890000
C      -47.86110000     -35.83220000     -70.33090000
H      -47.65130000     -36.45680000     -69.53170000
H      -48.79740000     -36.16370000     -70.70310000
C      -42.90030000     -36.13040000     -71.44430000
H      -42.84300000     -36.54250000     -70.44340000
H      -42.41480000     -36.66480000     -72.23480000
S      -48.45650000     -34.18140000     -69.67050000
S      -41.87610000     -34.54050000     -71.20710000
C      -46.89970000     -33.74390000     -68.77890000
H      -46.96840000     -33.96470000     -67.67370000
H      -46.16540000     -34.32990000     -69.24160000
C      -42.62610000     -33.79210000     -69.69090000
H      -41.97270000     -34.01620000     -68.80210000
H      -43.53890000     -34.32820000     -69.61340000
C      -42.89570000     -32.28590000     -69.81230000
H      -43.49320000     -32.03900000     -68.89710000
H      -41.94730000     -31.65410000     -69.74440000
C      -46.38820000     -32.19070000     -68.85040000
H      -45.43980000     -32.22280000     -68.33260000
H      -46.93500000     -31.50190000     -68.26120000
C      -46.27870000     -31.72270000     -70.23550000
C      -47.41900000     -31.29310000     -70.88530000
C      -45.13110000     -31.60240000     -71.09110000
H      -48.39930000     -31.37390000     -70.42380000
C      -45.45470000     -31.24490000     -72.42730000
C      -43.71440000     -31.80490000     -71.04500000
C      -43.06470000     -31.68430000     -72.22850000
S      -47.25460000     -31.07140000     -72.63840000
S      -44.17630000     -31.30470000     -73.56450000
H      -41.97600000     -31.75780000     -72.34140000
