40
Properties=species:S:1:pos:R:3 #=T CELL(abcABC):=T 1.889726e+02=T 90.00000=T Traj:=T positionsangstrom=T Step:=T 0=T Bead:=T pbc="F F F"
C      -44.84220000     -35.24020000     -73.22070000
C      -44.64490000     -35.82910000     -72.01760000
C      -45.58400000     -35.76640000     -70.99120000
C      -46.80190000     -35.15190000     -71.24080000
C      -47.00840000     -34.48900000     -72.47980000
C      -46.01980000     -34.49300000     -73.45200000
H      -44.05180000     -35.14270000     -74.02890000
H      -45.30810000     -36.34400000     -70.03940000
H      -47.95140000     -34.08460000     -72.72150000
H      -46.11530000     -33.91750000     -74.35700000
C      -47.94440000     -35.15220000     -70.28990000
H      -48.08800000     -36.15720000     -69.78510000
H      -48.87160000     -34.95110000     -70.81860000
C      -43.24790000     -36.52520000     -71.77810000
H      -43.34190000     -37.27000000     -71.00170000
H      -42.95630000     -37.08790000     -72.69100000
S      -47.95850000     -34.01450000     -68.73320000
S      -41.95900000     -35.26520000     -71.35190000
C      -46.23290000     -33.42250000     -68.40300000
H      -46.02230000     -33.56780000     -67.34540000
H      -45.45460000     -34.03490000     -68.91590000
C      -42.79690000     -34.35580000     -69.93100000
H      -42.27480000     -34.66670000     -69.05090000
H      -43.81650000     -34.79920000     -69.89100000
C      -42.84280000     -32.84700000     -70.21870000
H      -43.25040000     -32.45400000     -69.28970000
H      -41.81960000     -32.36110000     -70.23340000
C      -46.02020000     -31.89990000     -68.72610000
H      -45.03910000     -31.59390000     -68.37400000
H      -46.82060000     -31.39250000     -68.11790000
C      -46.13320000     -31.51410000     -70.25540000
C      -47.23990000     -30.90380000     -70.78800000
C      -45.12110000     -31.87060000     -71.26010000
H      -48.15280000     -31.03300000     -70.23780000
C      -45.60420000     -31.35160000     -72.48860000
C      -43.77110000     -32.40890000     -71.31420000
C      -43.29620000     -32.29530000     -72.61400000
S      -47.19770000     -30.63350000     -72.49060000
S      -44.37380000     -31.46950000     -73.76280000
H      -42.39880000     -32.85090000     -72.92030000
