40
Properties=species:S:1:pos:R:3 #=T CELL(abcABC):=T 1.889726e+02=T 90.00000=T Traj:=T positionsangstrom=T Step:=T 0=T Bead:=T pbc="F F F"
C      -44.71230000     -35.03870000     -73.10560000
C      -44.46630000     -35.77260000     -71.91090000
C      -45.57710000     -36.05750000     -71.04380000
C      -46.79890000     -35.41720000     -71.29730000
C      -46.99130000     -34.59740000     -72.42790000
C      -45.97160000     -34.55180000     -73.42820000
H      -43.83280000     -34.94130000     -73.82440000
H      -45.43750000     -36.73240000     -70.19740000
H      -47.97840000     -34.11560000     -72.57220000
H      -46.19940000     -34.01770000     -74.36880000
C      -47.92440000     -35.60460000     -70.34640000
H      -47.77100000     -36.62550000     -69.94660000
H      -48.85500000     -35.56100000     -70.80740000
C      -43.18460000     -36.41380000     -71.58610000
H      -43.20230000     -37.16260000     -70.82090000
H      -42.71950000     -36.83660000     -72.43580000
S      -48.05770000     -34.28910000     -69.07700000
S      -41.99800000     -35.10890000     -70.90450000
C      -46.39180000     -33.65570000     -68.81610000
H      -45.84710000     -34.17070000     -68.06290000
H      -45.99150000     -33.95030000     -69.86100000
C      -43.06450000     -34.04560000     -69.76810000
H      -42.77640000     -34.26150000     -68.76200000
H      -44.16620000     -34.29380000     -69.86440000
C      -42.88570000     -32.56400000     -70.10210000
H      -43.10170000     -32.05370000     -69.17870000
H      -41.79830000     -32.38210000     -70.20970000
C      -46.29070000     -32.05370000     -68.88060000
H      -45.37130000     -31.84030000     -68.37720000
H      -47.21470000     -31.73280000     -68.48540000
C      -46.15490000     -31.54490000     -70.30320000
C      -47.35780000     -31.11720000     -70.88590000
C      -45.06140000     -31.64600000     -71.21660000
H      -48.05550000     -30.71360000     -70.14740000
C      -45.48020000     -31.19180000     -72.49130000
C      -43.72730000     -32.12570000     -71.27370000
C      -43.19100000     -32.03110000     -72.53900000
S      -47.17810000     -30.74900000     -72.62960000
S      -44.20310000     -31.27380000     -73.72000000
H      -42.12830000     -32.14330000     -72.68560000
