40
Properties=species:S:1:pos:R:3 #=T CELL(abcABC):=T 1.889726e+02=T 90.00000=T Traj:=T positionsangstrom=T Step:=T 0=T Bead:=T pbc="F F F"
C      -45.00820000     -36.92260000     -72.03080000
C      -45.66740000     -36.11800000     -72.96860000
C      -46.93730000     -35.59940000     -72.75930000
C      -47.56750000     -35.75660000     -71.54810000
C      -46.90820000     -36.55660000     -70.62000000
C      -45.59660000     -37.07570000     -70.79580000
H      -44.08920000     -37.36980000     -72.37880000
H      -47.25490000     -34.94870000     -73.50810000
H      -47.32950000     -36.82500000     -69.64080000
H      -45.07540000     -37.57880000     -69.98490000
C      -48.96240000     -35.18190000     -71.28600000
H      -49.30640000     -35.35200000     -70.24920000
H      -49.74790000     -35.44930000     -72.03260000
C      -44.86510000     -35.89070000     -74.27630000
H      -43.91380000     -36.43580000     -74.42000000
H      -45.48990000     -36.32490000     -75.12100000
S      -49.09030000     -33.35150000     -71.49420000
S      -44.74520000     -34.16930000     -74.94770000
C      -47.66880000     -32.79180000     -70.53060000
H      -48.06120000     -32.25440000     -69.59460000
H      -47.06130000     -33.68030000     -70.24270000
C      -43.95060000     -33.02020000     -73.74120000
H      -44.41600000     -31.95820000     -73.80830000
H      -42.82000000     -32.83600000     -74.02850000
C      -43.91000000     -33.55600000     -72.26880000
H      -44.96590000     -33.81440000     -72.07040000
H      -43.31910000     -34.52300000     -72.26190000
C      -46.87620000     -31.74020000     -71.22140000
H      -47.42530000     -30.86170000     -71.38370000
H      -46.43800000     -32.13620000     -72.24980000
C      -45.60810000     -31.41760000     -70.29660000
C      -45.75450000     -30.45670000     -69.28110000
C      -44.22340000     -31.88680000     -70.29520000
H      -46.79300000     -30.00860000     -69.13290000
C      -43.39410000     -31.29890000     -69.34420000
C      -43.38270000     -32.67460000     -71.20110000
C      -42.07030000     -32.70860000     -70.84840000
S      -44.31280000     -30.17070000     -68.31910000
S      -41.72900000     -31.70410000     -69.39240000
H      -41.37840000     -33.35930000     -71.41820000
