40
Properties=species:S:1:pos:R:3 #=T CELL(abcABC):=T 1.889726e+02=T 90.00000=T Traj:=T positionsangstrom=T Step:=T 0=T Bead:=T pbc="F F F"
C      -44.48020000     -35.28830000     -73.10640000
C      -44.17270000     -35.82190000     -71.86190000
C      -45.23010000     -35.98870000     -70.91240000
C      -46.49050000     -35.46580000     -71.17950000
C      -46.75340000     -34.97800000     -72.51490000
C      -45.75110000     -34.93870000     -73.50170000
H      -43.56440000     -35.04360000     -73.73440000
H      -45.07590000     -36.53590000     -69.98120000
H      -47.76540000     -34.68970000     -72.85160000
H      -45.92620000     -34.69260000     -74.53900000
C      -47.60000000     -35.69780000     -70.19400000
H      -47.37260000     -36.44790000     -69.37830000
H      -48.51900000     -35.91720000     -70.68480000
C      -42.78160000     -36.19900000     -71.47420000
H      -42.70620000     -36.97670000     -70.70400000
H      -42.24500000     -36.56690000     -72.30720000
S      -48.15020000     -34.20550000     -69.29270000
S      -41.99950000     -34.57870000     -71.03820000
C      -46.52740000     -33.48300000     -68.56610000
H      -46.67360000     -33.73050000     -67.48800000
H      -45.77090000     -34.23960000     -68.87410000
C      -43.12040000     -33.84680000     -69.69570000
H      -42.60810000     -34.08780000     -68.78100000
H      -44.10420000     -34.31320000     -69.73430000
C      -43.23200000     -32.31580000     -69.83190000
H      -43.77930000     -31.96070000     -68.89960000
H      -42.29620000     -31.74080000     -69.69500000
C      -46.40150000     -32.04790000     -68.90960000
H      -45.42030000     -31.73080000     -68.63770000
H      -47.21380000     -31.49170000     -68.41580000
C      -46.42310000     -31.69670000     -70.35570000
C      -47.64020000     -31.58930000     -71.05220000
C      -45.30990000     -31.78240000     -71.35270000
H      -48.63140000     -31.49360000     -70.63810000
C      -45.62760000     -31.41080000     -72.66060000
C      -43.87500000     -31.84800000     -71.11900000
C      -43.19170000     -31.62990000     -72.25850000
S      -47.40600000     -31.26030000     -72.81160000
S      -44.13380000     -31.15500000     -73.60650000
H      -42.16170000     -31.77500000     -72.40210000
