40
Properties=species:S:1:pos:R:3 #=T CELL(abcABC):=T 1.889726e+02=T 90.00000=T Traj:=T positionsangstrom=T Step:=T 0=T Bead:=T pbc="F F F"
C      -45.43670000     -35.10850000     -73.14340000
C      -44.99630000     -35.69860000     -71.91020000
C      -45.83680000     -35.73280000     -70.79220000
C      -47.12900000     -35.17210000     -70.89880000
C      -47.59440000     -34.75480000     -72.12580000
C      -46.76880000     -34.67350000     -73.22630000
H      -44.87930000     -35.07820000     -74.06260000
H      -45.55280000     -36.28980000     -69.87420000
H      -48.56190000     -34.38390000     -72.29330000
H      -47.14470000     -34.43350000     -74.19340000
C      -48.06450000     -35.16920000     -69.66720000
H      -47.76880000     -36.06120000     -69.10770000
H      -49.12070000     -35.38660000     -69.92590000
C      -43.60480000     -36.31150000     -71.78750000
H      -43.66080000     -37.08540000     -70.97060000
H      -43.30120000     -36.85140000     -72.68780000
S      -48.07790000     -33.51890000     -68.82280000
S      -42.13810000     -35.13720000     -71.52220000
C      -46.29210000     -33.32020000     -68.39790000
H      -46.04520000     -33.54690000     -67.34600000
H      -45.82760000     -34.07560000     -69.05010000
C      -42.61720000     -34.20450000     -70.01850000
H      -42.01840000     -34.49210000     -69.18670000
H      -43.66860000     -34.40830000     -69.83270000
C      -42.59940000     -32.73410000     -70.23810000
H      -42.89620000     -32.18050000     -69.34410000
H      -41.54200000     -32.37460000     -70.41100000
C      -45.80560000     -31.88710000     -68.73790000
H      -44.80110000     -31.74510000     -68.37080000
H      -46.37900000     -31.02580000     -68.39530000
C      -45.82580000     -31.61040000     -70.34320000
C      -46.99680000     -31.13390000     -70.87730000
C      -44.75270000     -31.83870000     -71.31460000
H      -47.86720000     -30.89300000     -70.37790000
C      -45.23460000     -31.50430000     -72.60760000
C      -43.37750000     -32.28800000     -71.37410000
C      -42.94010000     -32.27440000     -72.67230000
S      -46.87470000     -31.02560000     -72.68100000
S      -44.08940000     -31.76740000     -73.85970000
H      -41.93290000     -32.47540000     -72.90080000
