40
Properties=species:S:1:pos:R:3 #=T CELL(abcABC):=T 1.889726e+02=T 90.00000=T Traj:=T positionsangstrom=T Step:=T 0=T Bead:=T pbc="F F F"
C      -45.48620000     -35.15470000     -73.03990000
C      -45.04610000     -35.87530000     -71.91650000
C      -45.83710000     -35.93960000     -70.74140000
C      -47.08000000     -35.17810000     -70.71050000
C      -47.44330000     -34.44340000     -71.84450000
C      -46.66220000     -34.46960000     -72.98260000
H      -44.97470000     -35.11830000     -73.99030000
H      -45.44320000     -36.32670000     -69.78460000
H      -48.22140000     -33.70480000     -71.85950000
H      -46.86630000     -33.81460000     -73.79920000
C      -47.81110000     -35.27380000     -69.41950000
H      -47.22620000     -35.93080000     -68.77300000
H      -48.86380000     -35.57020000     -69.46470000
C      -43.71830000     -36.56800000     -71.90030000
H      -43.61280000     -37.50160000     -71.32760000
H      -43.44420000     -36.90610000     -72.89510000
S      -47.98030000     -33.62170000     -68.60650000
S      -42.26830000     -35.51630000     -71.29990000
C      -46.16100000     -33.14890000     -68.40590000
H      -45.84180000     -33.10460000     -67.31470000
H      -45.53270000     -33.98430000     -68.79530000
C      -43.00680000     -34.26740000     -70.09690000
H      -42.64490000     -34.57440000     -69.01020000
H      -44.10230000     -34.37350000     -70.16640000
C      -42.53750000     -32.77240000     -70.32550000
H      -42.67870000     -32.24570000     -69.32400000
H      -41.49340000     -32.62910000     -70.51730000
C      -45.82650000     -31.80710000     -69.09260000
H      -44.75050000     -31.51170000     -68.86450000
H      -46.57100000     -31.08480000     -68.68590000
C      -45.96040000     -31.69320000     -70.58800000
C      -47.14640000     -31.32260000     -71.16230000
C      -44.83580000     -31.80590000     -71.52170000
H      -48.00950000     -31.18090000     -70.66190000
C      -45.28470000     -31.39650000     -72.78250000
C      -43.45490000     -32.22730000     -71.46380000
C      -42.86170000     -32.07670000     -72.68850000
S      -46.89540000     -30.94310000     -72.83120000
S      -43.95550000     -31.39520000     -73.94880000
H      -41.83420000     -32.31430000     -72.88290000
