40
Properties=species:S:1:pos:R:3 #=T CELL(abcABC):=T 1.889726e+02=T 90.00000=T Traj:=T positionsangstrom=T Step:=T 0=T Bead:=T pbc="F F F"
C      -48.00220000     -32.07220000     -69.10420000
C      -46.66650000     -32.18290000     -69.48330000
C      -46.05280000     -33.45990000     -69.52960000
C      -46.78320000     -34.61130000     -69.36110000
C      -48.13590000     -34.48390000     -68.96080000
C      -48.64700000     -33.20710000     -68.68260000
H      -48.49110000     -31.12130000     -69.04260000
H      -44.99300000     -33.51380000     -69.85680000
H      -48.65140000     -35.41160000     -68.79510000
H      -49.68350000     -33.17710000     -68.52110000
C      -46.19000000     -35.99080000     -69.66640000
H      -46.44830000     -36.66230000     -68.86350000
H      -45.13230000     -35.96730000     -69.75460000
C      -45.94550000     -30.92090000     -69.94390000
H      -45.94850000     -30.20910000     -69.15070000
H      -44.85170000     -31.03550000     -70.20390000
S      -46.58390000     -36.78160000     -71.36060000
S      -46.77770000     -30.27170000     -71.41360000
C      -46.82810000     -35.28650000     -72.36190000
H      -47.74080000     -35.42420000     -73.00490000
H      -46.88970000     -34.36490000     -71.78320000
C      -46.96240000     -31.60080000     -72.75630000
H      -47.85310000     -31.32970000     -73.32150000
H      -47.17070000     -32.63360000     -72.30890000
C      -45.79580000     -31.82020000     -73.68830000
H      -46.06330000     -32.64860000     -74.45430000
H      -45.47730000     -31.02430000     -74.32960000
C      -45.58240000     -35.15140000     -73.27320000
H      -45.73310000     -34.39660000     -74.04000000
H      -45.47230000     -36.05680000     -73.84360000
C      -44.27450000     -34.79420000     -72.60160000
C      -43.47270000     -35.61110000     -71.84460000
C      -43.88110000     -33.41850000     -72.60270000
H      -43.51940000     -36.69100000     -71.84580000
C      -42.63710000     -33.23930000     -71.97210000
C      -44.41560000     -32.12660000     -73.03760000
C      -43.53170000     -31.11290000     -72.73270000
S      -42.02760000     -34.77480000     -71.21670000
S      -42.16510000     -31.58830000     -71.78960000
H      -43.68890000     -30.08280000     -72.85860000
