40
Properties=species:S:1:pos:R:3 #=T CELL(abcABC):=T 1.889726e+02=T 90.00000=T Traj:=T positionsangstrom=T Step:=T 0=T Bead:=T pbc="F F F"
C      -45.47020000     -37.02760000     -72.33020000
C      -45.87050000     -36.04120000     -73.28000000
C      -47.09220000     -35.39870000     -73.04180000
C      -47.85370000     -35.62650000     -71.89410000
C      -47.36570000     -36.42730000     -70.92120000
C      -46.16070000     -37.13960000     -71.10480000
H      -44.54050000     -37.59320000     -72.58230000
H      -47.49070000     -34.56120000     -73.61320000
H      -47.98320000     -36.63280000     -70.10080000
H      -45.84230000     -37.83370000     -70.36200000
C      -49.14690000     -34.86160000     -71.78630000
H      -49.83500000     -35.27410000     -70.97450000
H      -49.68320000     -34.99410000     -72.71410000
C      -45.13970000     -35.79190000     -74.59410000
H      -44.28660000     -36.40280000     -74.68690000
H      -45.83110000     -36.02940000     -75.39770000
S      -48.85700000     -33.07860000     -71.52560000
S      -44.77140000     -33.98420000     -74.94980000
C      -47.47130000     -32.97850000     -70.46500000
H      -47.62790000     -33.26840000     -69.45330000
H      -46.73570000     -33.70860000     -70.87830000
C      -43.51940000     -33.41770000     -73.66430000
H      -42.76390000     -32.86760000     -74.24720000
H      -43.05050000     -34.29830000     -73.25480000
C      -44.27610000     -32.60800000     -72.65960000
H      -44.97230000     -31.86050000     -73.12430000
H      -45.04960000     -33.38490000     -72.22860000
C      -46.79150000     -31.54830000     -70.45470000
H      -47.45720000     -30.86230000     -70.01840000
H      -46.58440000     -31.27110000     -71.50560000
C      -45.54100000     -31.51460000     -69.61580000
C      -45.49680000     -31.28340000     -68.26400000
C      -44.14620000     -31.81180000     -70.09490000
H      -46.29490000     -30.94040000     -67.63990000
C      -43.20010000     -31.52590000     -69.16240000
C      -43.58120000     -32.13310000     -71.39470000
C      -42.22020000     -32.08470000     -71.35820000
S      -43.84340000     -31.21440000     -67.59010000
S      -41.57640000     -31.70870000     -69.75390000
H      -41.49530000     -32.22680000     -72.16360000
