40
Properties=species:S:1:pos:R:3 #=T CELL(abcABC):=T 1.889726e+02=T 90.00000=T Traj:=T positionsangstrom=T Step:=T 0=T Bead:=T pbc="F F F"
C      -45.45250000     -35.43090000     -73.07220000
C      -45.31510000     -36.10970000     -71.91420000
C      -46.14830000     -35.77070000     -70.77490000
C      -47.24450000     -34.89370000     -70.93220000
C      -47.38460000     -34.19560000     -72.14440000
C      -46.49800000     -34.44410000     -73.18240000
H      -44.83430000     -35.59460000     -73.94330000
H      -46.02570000     -36.43570000     -69.90980000
H      -48.11870000     -33.40900000     -72.34930000
H      -46.79090000     -34.02960000     -74.17430000
C      -48.23320000     -34.61670000     -69.73570000
H      -48.40000000     -35.50740000     -69.02810000
H      -49.09160000     -34.46040000     -70.28350000
C      -44.14320000     -37.03790000     -71.60180000
H      -44.41640000     -37.46220000     -70.55460000
H      -43.95890000     -37.83580000     -72.21750000
S      -47.70250000     -33.03540000     -68.79200000
S      -42.50880000     -36.09920000     -71.58650000
C      -45.96150000     -33.34790000     -68.39040000
H      -45.71580000     -33.72470000     -67.36730000
H      -45.59500000     -34.19360000     -68.97830000
C      -42.95440000     -34.80270000     -70.43900000
H      -42.48820000     -34.94170000     -69.53180000
H      -44.03710000     -34.82440000     -70.22800000
C      -42.55190000     -33.30310000     -70.85130000
H      -42.53040000     -32.70360000     -69.90090000
H      -41.57410000     -33.30470000     -71.32250000
C      -45.10680000     -32.15330000     -68.79910000
H      -44.06270000     -32.48420000     -68.70200000
H      -45.16360000     -31.44670000     -67.96510000
C      -45.45980000     -31.58440000     -70.16580000
C      -46.37450000     -30.61300000     -70.40630000
C      -44.72100000     -31.87590000     -71.39460000
H      -47.15350000     -30.16740000     -69.75010000
C      -45.24140000     -31.18770000     -72.44520000
C      -43.63730000     -32.69030000     -71.73280000
C      -43.39520000     -32.68320000     -73.07370000
S      -46.55190000     -30.09860000     -72.12260000
S      -44.44790000     -31.62710000     -73.99130000
H      -42.61950000     -33.21530000     -73.63750000
