40
Properties=species:S:1:pos:R:3 #=T CELL(abcABC):=T 1.889726e+02=T 90.00000=T Traj:=T positionsangstrom=T Step:=T 0=T Bead:=T pbc="F F F"
C      -46.18220000     -34.72570000     -73.35270000
C      -45.75370000     -35.48060000     -72.27990000
C      -46.45280000     -35.41570000     -71.07160000
C      -47.49130000     -34.52120000     -70.96290000
C      -47.82560000     -33.66610000     -71.99560000
C      -47.19170000     -33.74170000     -73.24070000
H      -45.68310000     -34.96090000     -74.29410000
H      -46.27230000     -36.15710000     -70.23380000
H      -48.61700000     -32.92820000     -71.83880000
H      -47.44530000     -33.01530000     -74.09460000
C      -48.27190000     -34.47360000     -69.62930000
H      -48.10550000     -35.36760000     -68.97860000
H      -49.38050000     -34.39060000     -69.77270000
C      -44.66610000     -36.58500000     -72.57870000
H      -44.94040000     -37.51810000     -72.09380000
H      -44.59270000     -36.77240000     -73.69820000
S      -47.63250000     -33.04750000     -68.52940000
S      -42.94070000     -35.98220000     -72.21780000
C      -45.85310000     -33.60980000     -68.20730000
H      -45.73210000     -33.83730000     -67.10780000
H      -45.62780000     -34.46390000     -68.77430000
C      -42.94620000     -35.10220000     -70.59070000
H      -42.48140000     -35.76630000     -69.88390000
H      -44.00050000     -35.05430000     -70.28710000
C      -42.34430000     -33.76020000     -70.71200000
H      -42.09250000     -33.27170000     -69.75780000
H      -41.36810000     -33.90230000     -71.13580000
C      -44.82210000     -32.48530000     -68.60670000
H      -43.77320000     -32.84140000     -68.76620000
H      -44.79680000     -31.77240000     -67.82490000
C      -45.14630000     -31.81140000     -69.94680000
C      -46.15540000     -30.89020000     -70.17670000
C      -44.37970000     -32.16070000     -71.21730000
H      -46.88730000     -30.59730000     -69.44550000
C      -44.95600000     -31.52010000     -72.32110000
C      -43.19370000     -32.90860000     -71.57050000
C      -42.82810000     -32.72070000     -72.86510000
S      -46.32780000     -30.45700000     -71.88510000
S      -44.03110000     -31.80230000     -73.71290000
H      -42.06600000     -33.33030000     -73.33050000
