40
Properties=species:S:1:pos:R:3 #=T CELL(abcABC):=T 1.889726e+02=T 90.00000=T Traj:=T positionsangstrom=T Step:=T 0=T Bead:=T pbc="F F F"
C      -45.90420000     -34.86350000     -73.34200000
C      -45.63650000     -35.74970000     -72.30220000
C      -46.41490000     -35.59290000     -71.13000000
C      -47.39650000     -34.61590000     -70.97960000
C      -47.63380000     -33.77740000     -72.00770000
C      -46.94940000     -33.93700000     -73.25350000
H      -45.19750000     -34.86710000     -74.25500000
H      -46.21380000     -36.31320000     -70.30390000
H      -48.41760000     -33.02110000     -71.90820000
H      -47.31540000     -33.40070000     -74.14410000
C      -48.22230000     -34.46010000     -69.71900000
H      -48.28290000     -35.34970000     -69.04320000
H      -49.23100000     -34.15550000     -69.88480000
C      -44.62120000     -36.80370000     -72.28280000
H      -44.88060000     -37.50670000     -71.45690000
H      -44.53340000     -37.36980000     -73.18780000
S      -47.68370000     -33.06090000     -68.56630000
S      -42.88740000     -36.26810000     -71.93830000
C      -45.89680000     -33.50510000     -68.27610000
H      -45.82310000     -33.77320000     -67.18810000
H      -45.75550000     -34.36130000     -68.87480000
C      -43.09620000     -34.99240000     -70.60440000
H      -42.80720000     -35.42060000     -69.68130000
H      -44.17470000     -34.73830000     -70.57860000
C      -42.39970000     -33.64360000     -70.85830000
H      -42.23540000     -33.04300000     -69.94010000
H      -41.32800000     -33.73950000     -71.24110000
C      -44.83100000     -32.34940000     -68.54580000
H      -43.82910000     -32.90340000     -68.36610000
H      -44.93340000     -31.60270000     -67.71670000
C      -45.01980000     -31.74920000     -69.98990000
C      -46.17350000     -31.01410000     -70.15120000
C      -44.32110000     -31.94930000     -71.25810000
H      -46.78400000     -30.70400000     -69.37090000
C      -45.00290000     -31.35180000     -72.33220000
C      -43.29910000     -32.81160000     -71.77170000
C      -42.97760000     -32.52560000     -73.09000000
S      -46.43750000     -30.44540000     -71.79740000
S      -44.17030000     -31.49310000     -73.84640000
H      -42.17610000     -33.00960000     -73.65640000
