40
Properties=species:S:1:pos:R:3 #=T CELL(abcABC):=T 1.889726e+02=T 90.00000=T Traj:=T positionsangstrom=T Step:=T 0=T Bead:=T pbc="F F F"
C      -45.47400000     -35.39580000     -73.06410000
C      -45.24380000     -36.09760000     -71.85600000
C      -46.16900000     -35.91490000     -70.76630000
C      -47.26340000     -34.99970000     -70.86300000
C      -47.43930000     -34.30550000     -72.02480000
C      -46.56490000     -34.51370000     -73.13930000
H      -44.90550000     -35.55490000     -74.02190000
H      -45.98050000     -36.35930000     -69.78130000
H      -48.23830000     -33.63610000     -72.25470000
H      -46.58570000     -33.88150000     -74.00970000
C      -48.11020000     -34.74650000     -69.66020000
H      -47.98320000     -35.38770000     -68.82880000
H      -49.21270000     -34.80860000     -69.86390000
C      -44.06010000     -37.01030000     -71.71460000
H      -44.10140000     -37.67480000     -70.80220000
H      -43.92110000     -37.56420000     -72.58500000
S      -47.78080000     -33.07500000     -68.89780000
S      -42.49380000     -35.96950000     -71.63280000
C      -45.96630000     -33.12230000     -68.46900000
H      -45.89740000     -33.35740000     -67.45070000
H      -45.56530000     -33.86750000     -69.15110000
C      -42.80850000     -34.78010000     -70.23400000
H      -42.08730000     -35.05600000     -69.38210000
H      -43.80560000     -34.94600000     -69.77550000
C      -42.57200000     -33.28880000     -70.61340000
H      -42.60230000     -32.69350000     -69.69010000
H      -41.57800000     -33.18140000     -71.08870000
C      -45.23540000     -31.80260000     -68.70260000
H      -44.16720000     -31.96580000     -68.51420000
H      -45.59200000     -30.92030000     -68.16020000
C      -45.41370000     -31.39210000     -70.18560000
C      -46.44050000     -30.53200000     -70.53020000
C      -44.73550000     -31.91760000     -71.38980000
H      -47.10050000     -30.07480000     -69.82710000
C      -45.29670000     -31.28390000     -72.54550000
C      -43.53420000     -32.67960000     -71.64930000
C      -43.19620000     -32.61870000     -73.02120000
S      -46.68050000     -30.31950000     -72.25470000
S      -44.39540000     -31.67300000     -73.98210000
H      -42.39120000     -33.22670000     -73.37810000
