40
Properties=species:S:1:pos:R:3 #=T CELL(abcABC):=T 1.889726e+02=T 90.00000=T Traj:=T positionsangstrom=T Step:=T 0=T Bead:=T pbc="F F F"
C      -44.95300000     -36.63940000     -72.66470000
C      -45.80590000     -35.95640000     -73.57990000
C      -47.04740000     -35.52100000     -73.08470000
C      -47.52640000     -35.75500000     -71.78630000
C      -46.64540000     -36.45520000     -70.93350000
C      -45.37770000     -36.76840000     -71.39760000
H      -44.05550000     -37.08060000     -73.05790000
H      -47.66250000     -34.93620000     -73.74710000
H      -46.97460000     -36.66570000     -69.93100000
H      -44.69990000     -37.33960000     -70.64030000
C      -48.86630000     -35.15410000     -71.42470000
H      -49.34670000     -35.52290000     -70.45900000
H      -49.60850000     -35.32390000     -72.27100000
C      -45.39160000     -35.63130000     -74.95210000
H      -44.58420000     -36.22710000     -75.35870000
H      -46.22080000     -35.64490000     -75.67750000
S      -48.87280000     -33.30290000     -71.24980000
S      -45.05810000     -33.75790000     -75.06270000
C      -47.53410000     -33.05150000     -70.02050000
H      -47.90000000     -33.26630000     -68.98490000
H      -46.79610000     -33.81480000     -70.20560000
C      -43.91210000     -33.38140000     -73.67010000
H      -43.17350000     -32.72070000     -74.00570000
H      -43.43650000     -34.26240000     -73.39090000
C      -44.59920000     -32.74640000     -72.49570000
H      -44.97620000     -31.72940000     -72.84680000
H      -45.41730000     -33.27660000     -72.02160000
C      -47.00100000     -31.59620000     -70.21320000
H      -47.70480000     -30.88550000     -69.79140000
H      -46.83360000     -31.40890000     -71.29970000
C      -45.61190000     -31.52950000     -69.50630000
C      -45.52620000     -31.15260000     -68.19400000
C      -44.29620000     -31.79520000     -70.13570000
H      -46.31210000     -30.96200000     -67.59290000
C      -43.30410000     -31.57460000     -69.23260000
C      -43.68960000     -32.35920000     -71.38300000
C      -42.34740000     -32.36460000     -71.42000000
S      -43.83640000     -31.12150000     -67.62380000
S      -41.61990000     -31.72580000     -69.92640000
H      -41.85460000     -32.89750000     -72.18200000
