40
Properties=species:S:1:pos:R:3 #=T CELL(abcABC):=T 1.889726e+02=T 90.00000=T Traj:=T positionsangstrom=T Step:=T 0=T Bead:=T pbc="F F F"
C      -44.92900000     -36.52890000     -72.80880000
C      -45.83050000     -35.81850000     -73.64290000
C      -47.05350000     -35.42470000     -73.18010000
C      -47.44680000     -35.64110000     -71.81130000
C      -46.46220000     -36.28230000     -70.97140000
C      -45.29090000     -36.73250000     -71.48010000
H      -43.88310000     -36.79880000     -73.08400000
H      -47.72970000     -34.97160000     -73.88490000
H      -46.69910000     -36.41720000     -69.90450000
H      -44.51950000     -37.09910000     -70.79560000
C      -48.75850000     -35.35560000     -71.15980000
H      -48.80890000     -35.71450000     -70.14920000
H      -49.62860000     -35.76550000     -71.60000000
C      -45.46920000     -35.44860000     -75.08570000
H      -44.53770000     -35.95180000     -75.30950000
H      -46.22920000     -35.76860000     -75.83390000
S      -48.90060000     -33.54330000     -71.11910000
S      -45.07720000     -33.67150000     -75.15460000
C      -47.47870000     -33.14320000     -70.06520000
H      -47.71700000     -33.24570000     -68.97990000
H      -46.73990000     -33.90230000     -70.27700000
C      -44.07940000     -33.38160000     -73.60910000
H      -43.19790000     -32.68630000     -73.91670000
H      -43.64740000     -34.40080000     -73.41620000
C      -44.72420000     -32.74660000     -72.44350000
H      -45.32920000     -31.91820000     -72.73740000
H      -45.45260000     -33.43340000     -72.01810000
C      -46.94690000     -31.70080000     -70.33400000
H      -47.74530000     -30.97340000     -70.17450000
H      -46.74150000     -31.63910000     -71.42390000
C      -45.60580000     -31.51780000     -69.50900000
C      -45.54030000     -31.21510000     -68.12480000
C      -44.30980000     -31.75050000     -70.13020000
H      -46.23790000     -30.82660000     -67.50510000
C      -43.28050000     -31.62500000     -69.19380000
C      -43.74320000     -32.32920000     -71.37960000
C      -42.35960000     -32.29620000     -71.41090000
S      -43.83190000     -31.02570000     -67.62640000
S      -41.65510000     -31.84540000     -69.87640000
H      -41.75320000     -32.67890000     -72.27100000
