40
Properties=species:S:1:pos:R:3 #=T CELL(abcABC):=T 1.889726e+02=T 90.00000=T Traj:=T positionsangstrom=T Step:=T 0=T Bead:=T pbc="F F F"
C      -46.51260000     -34.54160000     -73.14650000
C      -46.27460000     -35.71400000     -72.36010000
C      -46.89470000     -35.73420000     -71.11180000
C      -47.70670000     -34.68360000     -70.65510000
C      -47.94130000     -33.61120000     -71.48770000
C      -47.27550000     -33.40710000     -72.70620000
H      -45.89100000     -34.44090000     -74.04670000
H      -46.74800000     -36.66650000     -70.53240000
H      -48.50390000     -32.81800000     -71.09420000
H      -47.48630000     -32.57370000     -73.37170000
C      -48.16350000     -34.74500000     -69.23880000
H      -47.96560000     -35.81250000     -68.78680000
H      -49.22750000     -34.50810000     -69.01400000
C      -45.37490000     -36.73910000     -72.91470000
H      -45.56270000     -37.74210000     -72.50460000
H      -45.51260000     -36.76150000     -74.07910000
S      -47.11090000     -33.52200000     -68.24460000
S      -43.51140000     -36.30880000     -72.70290000
C      -45.28750000     -33.88880000     -68.54140000
H      -44.84270000     -34.53080000     -67.71120000
H      -45.12910000     -34.55330000     -69.43520000
C      -43.40180000     -35.43570000     -71.11170000
H      -43.09380000     -36.11730000     -70.33700000
H      -44.45380000     -35.26230000     -70.84110000
C      -42.54160000     -34.05310000     -71.23340000
H      -42.13310000     -33.76030000     -70.21470000
H      -41.68010000     -34.32060000     -71.93560000
C      -44.41980000     -32.56750000     -68.71860000
H      -43.33250000     -32.86940000     -68.64650000
H      -44.59390000     -31.95160000     -67.90220000
C      -44.83780000     -31.77840000     -69.92490000
C      -45.80700000     -30.79860000     -69.95330000
C      -44.18750000     -31.97110000     -71.21600000
H      -46.40560000     -30.57590000     -69.05860000
C      -44.61360000     -31.03000000     -72.09710000
C      -43.28260000     -32.89650000     -71.89500000
C      -43.11040000     -32.61820000     -73.21190000
S      -45.87180000     -29.97000000     -71.47530000
S      -43.96150000     -31.17470000     -73.78100000
H      -42.47680000     -33.09030000     -73.93760000
