40
Properties=species:S:1:pos:R:3 #=T CELL(abcABC):=T 1.889726e+02=T 90.00000=T Traj:=T positionsangstrom=T Step:=T 0=T Bead:=T pbc="F F F"
C      -46.69070000     -34.64410000     -73.31080000
C      -46.42230000     -35.69920000     -72.40980000
C      -46.80020000     -35.56750000     -71.06760000
C      -47.62030000     -34.54460000     -70.64020000
C      -47.97330000     -33.57900000     -71.53130000
C      -47.56840000     -33.61500000     -72.83700000
H      -46.26990000     -34.74470000     -74.28700000
H      -46.56260000     -36.43360000     -70.37490000
H      -48.61340000     -32.74090000     -71.18780000
H      -47.98500000     -32.86390000     -73.48750000
C      -48.08970000     -34.50920000     -69.20430000
H      -48.21150000     -35.50310000     -68.86580000
H      -49.09890000     -34.10080000     -69.17160000
C      -45.46160000     -36.75180000     -72.77410000
H      -45.42280000     -37.45270000     -72.04580000
H      -45.67420000     -37.18400000     -73.74450000
S      -47.06500000     -33.46180000     -68.05170000
S      -43.61240000     -36.22500000     -72.89570000
C      -45.39720000     -34.03200000     -68.51300000
H      -45.18870000     -34.74870000     -67.78230000
H      -45.44340000     -34.47020000     -69.55300000
C      -43.33980000     -35.39200000     -71.25080000
H      -42.65550000     -36.05410000     -70.64420000
H      -44.26930000     -35.11980000     -70.76030000
C      -42.53420000     -34.08860000     -71.32230000
H      -42.18880000     -33.81930000     -70.33910000
H      -41.68530000     -34.28430000     -71.87390000
C      -44.43030000     -32.83840000     -68.70420000
H      -43.36440000     -33.22890000     -68.75370000
H      -44.43110000     -32.10890000     -67.88370000
C      -44.74640000     -31.93440000     -69.93750000
C      -45.50280000     -30.76780000     -69.77710000
C      -44.25440000     -32.08910000     -71.29660000
H      -45.81490000     -30.40680000     -68.85260000
C      -44.63880000     -31.04680000     -72.11040000
C      -43.28030000     -32.93840000     -71.95230000
C      -43.13510000     -32.67750000     -73.27810000
S      -45.64760000     -29.90070000     -71.31330000
S      -44.03110000     -31.20100000     -73.79550000
H      -42.31980000     -33.06170000     -73.84820000
