40
Properties=species:S:1:pos:R:3 #=T CELL(abcABC):=T 1.889726e+02=T 90.00000=T Traj:=T positionsangstrom=T Step:=T 0=T Bead:=T pbc="F F F"
C      -44.86540000     -36.36590000     -72.92750000
C      -45.80210000     -35.61060000     -73.63920000
C      -46.99170000     -35.37740000     -72.97290000
C      -47.24960000     -35.90590000     -71.69490000
C      -46.35040000     -36.70680000     -70.99410000
C      -45.07700000     -36.77670000     -71.63280000
H      -43.84590000     -36.44930000     -73.29230000
H      -47.80500000     -34.75890000     -73.40360000
H      -46.41520000     -37.18180000     -70.00880000
H      -44.36390000     -37.33900000     -71.06030000
C      -48.65320000     -35.68680000     -71.07630000
H      -48.72060000     -36.16650000     -70.08790000
H      -49.50140000     -36.04290000     -71.71610000
C      -45.37460000     -35.28480000     -75.06420000
H      -44.49280000     -35.76240000     -75.40860000
H      -46.26150000     -35.43650000     -75.66760000
S      -48.86980000     -33.84810000     -70.80670000
S      -45.09970000     -33.42970000     -75.31130000
C      -47.30490000     -33.36110000     -69.89090000
H      -47.31210000     -33.54950000     -68.77070000
H      -46.49770000     -34.00660000     -70.36100000
C      -44.06800000     -33.10610000     -73.71900000
H      -43.25730000     -32.39140000     -73.87700000
H      -43.47180000     -34.07410000     -73.62580000
C      -44.81220000     -32.63940000     -72.46010000
H      -45.38490000     -31.70670000     -72.48890000
H      -45.50230000     -33.45000000     -72.15550000
C      -46.98780000     -31.94280000     -70.19240000
H      -47.81840000     -31.38580000     -69.77730000
H      -47.07410000     -31.81760000     -71.28160000
C      -45.67820000     -31.36060000     -69.58660000
C      -45.56770000     -30.97970000     -68.26030000
C      -44.37100000     -31.76120000     -70.10550000
H      -46.43630000     -30.74020000     -67.67290000
C      -43.29700000     -31.41530000     -69.35910000
C      -43.92730000     -32.38190000     -71.29820000
C      -42.57030000     -32.42510000     -71.41530000
S      -43.86230000     -30.74280000     -67.76510000
S      -41.78160000     -31.98290000     -69.92430000
H      -41.99980000     -32.76890000     -72.24890000
