40
Properties=species:S:1:pos:R:3 #=T CELL(abcABC):=T 1.889726e+02=T 90.00000=T Traj:=T positionsangstrom=T Step:=T 0=T Bead:=T pbc="F F F"
C      -41.13320000     -32.92030000     -71.81490000
C      -42.29200000     -32.29920000     -72.23730000
C      -43.09210000     -31.58120000     -71.33340000
C      -42.76640000     -31.48190000     -69.92310000
C      -41.65240000     -32.21260000     -69.53860000
C      -40.84980000     -32.87160000     -70.46590000
H      -40.50790000     -33.34090000     -72.61150000
H      -43.93220000     -31.00700000     -71.71790000
H      -41.38350000     -32.26020000     -68.53970000
H      -39.88450000     -33.36010000     -70.16580000
C      -43.54800000     -30.73260000     -68.92380000
H      -42.92810000     -29.88130000     -68.56610000
H      -43.76050000     -31.33340000     -68.00700000
C      -42.73330000     -32.18870000     -73.70070000
H      -43.74080000     -31.65290000     -73.81670000
H      -41.83880000     -31.82770000     -74.21810000
S      -45.11030000     -30.04240000     -69.53290000
S      -42.93810000     -33.85380000     -74.51410000
C      -46.42010000     -31.45410000     -69.39210000
H      -46.96240000     -31.39670000     -68.44340000
H      -47.09060000     -31.31070000     -70.26160000
C      -44.66970000     -34.31250000     -74.17810000
H      -44.60620000     -35.48100000     -74.03880000
H      -45.41660000     -33.98610000     -74.95530000
C      -45.23660000     -34.00110000     -72.81350000
H      -44.66390000     -34.30780000     -72.02770000
H      -45.41710000     -32.95180000     -72.62220000
C      -45.85500000     -32.88390000     -69.65700000
H      -45.32050000     -33.27620000     -68.74870000
H      -45.27400000     -32.87000000     -70.51380000
C      -47.04130000     -33.86290000     -69.90440000
C      -47.94130000     -34.16530000     -68.89650000
C      -47.24260000     -34.55170000     -71.14780000
H      -47.89370000     -33.89530000     -67.90750000
C      -48.34070000     -35.36310000     -71.10730000
C      -46.57020000     -34.68110000     -72.43600000
C      -47.16500000     -35.53520000     -73.29100000
S      -49.18360000     -35.19230000     -69.56790000
S      -48.67370000     -36.19250000     -72.62350000
H      -46.93550000     -35.85410000     -74.27440000
