40
Properties=species:S:1:pos:R:3 #=T CELL(abcABC):=T 1.889726e+02=T 90.00000=T Traj:=T positionsangstrom=T Step:=T 0=T Bead:=T pbc="F F F"
C      -44.02670000     -30.92750000     -74.12960000
C      -43.86630000     -30.74360000     -72.72600000
C      -45.07610000     -30.46550000     -71.97650000
C      -46.30630000     -30.39190000     -72.68950000
C      -46.46870000     -30.75360000     -74.01640000
C      -45.33100000     -31.12370000     -74.73400000
H      -43.13670000     -31.05310000     -74.79020000
H      -45.05480000     -30.23420000     -70.87610000
H      -47.46140000     -30.82660000     -74.49070000
H      -45.41450000     -31.39620000     -75.81380000
C      -47.50050000     -30.00550000     -71.71530000
H      -48.09830000     -29.14510000     -72.16120000
H      -47.15360000     -29.69640000     -70.77600000
C      -42.46390000     -30.88380000     -72.16230000
H      -41.88530000     -31.73200000     -72.56830000
H      -42.00710000     -29.91580000     -72.31120000
S      -48.71780000     -31.46270000     -71.50730000
S      -42.41060000     -30.96780000     -70.26730000
C      -47.69350000     -32.81540000     -70.64360000
H      -47.03420000     -32.22340000     -70.04510000
H      -48.38160000     -33.40400000     -70.06510000
C      -43.37660000     -32.52880000     -69.90260000
H      -44.40030000     -32.34250000     -69.53620000
H      -42.97950000     -32.91840000     -68.92710000
C      -43.38120000     -33.61570000     -70.97400000
H      -43.96190000     -33.38220000     -71.85880000
H      -42.35620000     -33.78650000     -71.25290000
C      -47.00150000     -33.65600000     -71.71770000
H      -46.13360000     -33.09970000     -72.14200000
H      -47.58210000     -33.92200000     -72.56630000
C      -46.56080000     -35.03350000     -71.17850000
C      -47.43940000     -36.12250000     -71.28860000
C      -45.25820000     -35.43100000     -70.64910000
H      -48.49330000     -35.97920000     -71.62430000
C      -45.33300000     -36.75290000     -70.23070000
C      -43.88450000     -34.96570000     -70.52980000
C      -43.02110000     -35.89680000     -69.99090000
S      -46.91180000     -37.52480000     -70.47020000
S      -43.82750000     -37.48520000     -69.74400000
H      -42.00670000     -35.64810000     -69.78070000
