40
Properties=species:S:1:pos:R:3 #=T CELL(abcABC):=T 1.889726e+02=T 90.00000=T Traj:=T positionsangstrom=T Step:=T 0=T Bead:=T pbc="F F F"
C      -44.01680000     -31.11530000     -74.01440000
C      -43.89150000     -30.80460000     -72.61930000
C      -45.03490000     -30.28660000     -71.95700000
C      -46.28760000     -30.14150000     -72.60570000
C      -46.41610000     -30.55710000     -73.94310000
C      -45.30390000     -31.04340000     -74.57760000
H      -43.12260000     -31.39160000     -74.53250000
H      -45.02380000     -29.89670000     -70.90390000
H      -47.36090000     -30.56580000     -74.47670000
H      -45.41480000     -31.47050000     -75.62770000
C      -47.60560000     -29.91480000     -71.88410000
H      -48.25420000     -29.16490000     -72.20980000
H      -47.44830000     -29.66050000     -70.77040000
C      -42.53510000     -30.92300000     -72.00040000
H      -41.94070000     -31.74470000     -72.47320000
H      -42.02740000     -30.04200000     -72.41950000
S      -48.68500000     -31.45680000     -71.87190000
S      -42.44320000     -31.06180000     -70.20650000
C      -47.63790000     -32.67830000     -71.04580000
H      -46.78510000     -32.26720000     -70.41870000
H      -48.36460000     -33.19770000     -70.34730000
C      -43.40170000     -32.63950000     -69.73110000
H      -44.42680000     -32.39380000     -69.52100000
H      -42.76210000     -32.96320000     -68.87040000
C      -43.35590000     -33.66210000     -70.90880000
H      -44.05990000     -33.26940000     -71.69810000
H      -42.35030000     -33.68830000     -71.34890000
C      -46.75140000     -33.74730000     -71.88130000
H      -45.85350000     -33.22630000     -72.18370000
H      -47.37970000     -33.90070000     -72.81620000
C      -46.53540000     -34.97670000     -71.06750000
C      -47.60570000     -35.88080000     -70.89210000
C      -45.23480000     -35.52430000     -70.61440000
H      -48.59650000     -35.73110000     -71.25050000
C      -45.32960000     -36.89090000     -70.32100000
C      -43.84820000     -35.05220000     -70.53670000
C      -43.01380000     -36.04300000     -70.09690000
S      -46.98180000     -37.48370000     -70.34900000
S      -43.84010000     -37.53140000     -69.76490000
H      -41.93430000     -35.93050000     -69.89700000
