40
Properties=species:S:1:pos:R:3 #=T CELL(abcABC):=T 1.889726e+02=T 90.00000=T Traj:=T positionsangstrom=T Step:=T 0=T Bead:=T pbc="F F F"
C      -41.19950000     -32.83660000     -71.47510000
C      -42.18720000     -31.98660000     -72.08370000
C      -43.03770000     -31.31240000     -71.17830000
C      -42.86670000     -31.34230000     -69.80780000
C      -41.75660000     -32.04560000     -69.23030000
C      -40.99510000     -32.84580000     -70.10410000
H      -40.61810000     -33.41150000     -72.15300000
H      -43.91960000     -30.79540000     -71.70770000
H      -41.50540000     -31.95090000     -68.17870000
H      -40.07590000     -33.32070000     -69.69070000
C      -43.93540000     -30.65290000     -68.95300000
H      -43.45750000     -29.76240000     -68.46980000
H      -44.14080000     -31.29140000     -68.04190000
C      -42.47220000     -31.97500000     -73.60090000
H      -43.32090000     -31.27010000     -73.77810000
H      -41.52270000     -31.74620000     -74.16380000
S      -45.40400000     -29.87540000     -69.77840000
S      -43.03190000     -33.67570000     -74.39290000
C      -46.32070000     -31.30200000     -70.56100000
H      -47.24990000     -30.99800000     -70.84970000
H      -45.74790000     -31.57940000     -71.48090000
C      -44.67350000     -33.88940000     -73.56020000
H      -45.25950000     -34.50580000     -74.17900000
H      -45.09830000     -32.88430000     -73.60830000
C      -44.64350000     -34.47810000     -72.12020000
H      -43.85370000     -35.22430000     -72.01080000
H      -44.29000000     -33.74040000     -71.33390000
C      -46.53960000     -32.53920000     -69.62710000
H      -46.88020000     -32.22340000     -68.59640000
H      -45.61380000     -33.06400000     -69.48770000
C      -47.44860000     -33.60960000     -70.25290000
C      -48.79810000     -33.54220000     -70.01870000
C      -47.11270000     -34.79880000     -71.12550000
H      -49.27420000     -32.80510000     -69.48780000
C      -48.20340000     -35.68040000     -71.20650000
C      -45.93890000     -35.25680000     -71.82250000
C      -46.21010000     -36.47230000     -72.41620000
S      -49.67460000     -35.01350000     -70.45910000
S      -47.88050000     -36.99230000     -72.24990000
H      -45.53020000     -36.99450000     -73.06680000
