40
Properties=species:S:1:pos:R:3 #=T CELL(abcABC):=T 1.889726e+02=T 90.00000=T Traj:=T positionsangstrom=T Step:=T 0=T Bead:=T pbc="F F F"
C      -41.37930000     -32.90870000     -71.40500000
C      -42.32660000     -32.08400000     -72.06590000
C      -43.25300000     -31.43010000     -71.29580000
C      -43.19810000     -31.47000000     -69.86980000
C      -42.08270000     -32.10580000     -69.21680000
C      -41.20750000     -32.88630000     -69.98690000
H      -40.72720000     -33.46580000     -71.99110000
H      -44.01570000     -30.72370000     -71.66640000
H      -41.91330000     -32.07290000     -68.16840000
H      -40.53840000     -33.68760000     -69.58760000
C      -44.03880000     -30.60650000     -68.94290000
H      -43.41440000     -29.85370000     -68.42260000
H      -44.48280000     -31.28800000     -68.21400000
C      -42.42420000     -32.10840000     -73.59900000
H      -43.03030000     -31.25920000     -74.00800000
H      -41.43620000     -32.04180000     -74.02300000
S      -45.48340000     -29.76830000     -69.76340000
S      -43.10680000     -33.68030000     -74.35000000
C      -46.49140000     -31.19170000     -70.52640000
H      -47.56400000     -30.97640000     -70.46430000
H      -46.22870000     -31.19270000     -71.62950000
C      -44.73920000     -33.87450000     -73.60830000
H      -45.24210000     -34.56790000     -74.29640000
H      -45.42410000     -32.90970000     -73.59250000
C      -44.64000000     -34.41540000     -72.13720000
H      -43.79000000     -35.04910000     -72.19360000
H      -44.44770000     -33.67880000     -71.41320000
C      -46.28530000     -32.50880000     -69.88320000
H      -46.50330000     -32.34280000     -68.85270000
H      -45.27060000     -32.90580000     -69.95870000
C      -47.26520000     -33.61440000     -70.31880000
C      -48.55310000     -33.61140000     -69.86540000
C      -46.94290000     -34.78300000     -71.09110000
H      -48.90630000     -32.85570000     -69.30510000
C      -48.05170000     -35.59230000     -71.27780000
C      -45.87000000     -35.19750000     -71.89330000
C      -46.07690000     -36.37980000     -72.51150000
S      -49.53120000     -34.96130000     -70.44910000
S      -47.66240000     -37.06490000     -72.17280000
H      -45.21620000     -36.89420000     -72.92790000
