40
Properties=species:S:1:pos:R:3 #=T CELL(abcABC):=T 1.889726e+02=T 90.00000=T Traj:=T positionsangstrom=T Step:=T 0=T Bead:=T pbc="F F F"
C      -40.91720000     -32.62270000     -71.65840000
C      -41.96030000     -31.89890000     -72.25590000
C      -42.84030000     -31.14840000     -71.39130000
C      -42.74810000     -31.39010000     -69.99010000
C      -41.61530000     -31.97510000     -69.45970000
C      -40.67160000     -32.53410000     -70.29660000
H      -40.23650000     -33.18610000     -72.38290000
H      -43.75170000     -30.74520000     -71.78150000
H      -41.48030000     -31.82160000     -68.35450000
H      -39.85590000     -33.05840000     -69.85360000
C      -43.76710000     -30.78950000     -69.08940000
H      -43.23290000     -29.95460000     -68.54670000
H      -43.93840000     -31.50290000     -68.24590000
C      -42.31670000     -32.06960000     -73.75360000
H      -43.09770000     -31.35900000     -74.09200000
H      -41.39190000     -32.05280000     -74.29900000
S      -45.36050000     -30.16290000     -69.74060000
S      -42.95260000     -33.78850000     -74.00590000
C      -46.15390000     -31.48950000     -70.61360000
H      -47.10530000     -31.09200000     -71.08990000
H      -45.55140000     -31.95190000     -71.34960000
C      -44.68240000     -33.67780000     -73.37020000
H      -45.31320000     -34.01310000     -74.18380000
H      -44.77460000     -32.60090000     -73.20700000
C      -44.83940000     -34.53530000     -72.06950000
H      -44.18240000     -35.30160000     -72.18910000
H      -44.49040000     -33.94950000     -71.19520000
C      -46.48390000     -32.63890000     -69.61190000
H      -46.76010000     -32.31280000     -68.63860000
H      -45.53350000     -33.26180000     -69.55630000
C      -47.55740000     -33.59170000     -70.18830000
C      -48.85160000     -33.61180000     -69.70430000
C      -47.31130000     -34.75010000     -71.04610000
H      -49.29160000     -32.85520000     -68.95490000
C      -48.40310000     -35.58830000     -71.22540000
C      -46.18510000     -35.19400000     -71.90040000
C      -46.44970000     -36.40270000     -72.53820000
S      -49.80740000     -34.93040000     -70.37390000
S      -48.13960000     -36.90550000     -72.35480000
H      -45.78010000     -37.05250000     -73.11880000
