40
Properties=species:S:1:pos:R:3 #=T CELL(abcABC):=T 1.889726e+02=T 90.00000=T Traj:=T positionsangstrom=T Step:=T 0=T Bead:=T pbc="F F F"
C      -41.78390000     -32.21380000     -70.52480000
C      -42.62570000     -31.59240000     -71.49460000
C      -43.70780000     -30.79150000     -71.04810000
C      -44.01310000     -30.69970000     -69.67070000
C      -43.19610000     -31.36380000     -68.81110000
C      -42.05950000     -32.14330000     -69.17550000
H      -41.06840000     -32.95610000     -70.89170000
H      -44.47390000     -30.39210000     -71.78590000
H      -43.39230000     -31.40390000     -67.69350000
H      -41.36660000     -32.70090000     -68.58620000
C      -45.25060000     -29.91160000     -69.23330000
H      -44.99000000     -28.84850000     -69.21950000
H      -45.62650000     -30.14930000     -68.21900000
C      -42.30600000     -31.59020000     -73.00950000
H      -43.11520000     -31.02590000     -73.49840000
H      -41.38360000     -30.95260000     -73.13840000
S      -46.69760000     -29.86500000     -70.36310000
S      -42.10540000     -33.18970000     -73.78590000
C      -46.94400000     -31.63910000     -71.02300000
H      -47.99380000     -31.61260000     -71.32130000
H      -46.29640000     -31.78140000     -71.88910000
C      -43.75400000     -33.91400000     -73.67580000
H      -43.54020000     -34.82340000     -74.14280000
H      -44.42750000     -33.37010000     -74.36120000
C      -44.33280000     -34.19620000     -72.29370000
H      -43.61950000     -34.53300000     -71.70670000
H      -44.64300000     -33.33410000     -71.89070000
C      -46.74230000     -32.72200000     -69.98030000
H      -47.29470000     -32.54390000     -68.98730000
H      -45.67760000     -32.74580000     -69.77560000
C      -47.19790000     -34.11260000     -70.40740000
C      -48.37360000     -34.56650000     -69.81230000
C      -46.71900000     -35.01640000     -71.41450000
H      -48.88330000     -34.13910000     -68.94380000
C      -47.55640000     -36.15280000     -71.54110000
C      -45.52440000     -35.11990000     -72.30080000
C      -45.53200000     -36.33720000     -72.88030000
S      -48.84560000     -36.17610000     -70.36980000
S      -46.95270000     -37.36780000     -72.70200000
H      -44.68790000     -36.70140000     -73.50110000
