40
Properties=species:S:1:pos:R:3 #=T CELL(abcABC):=T 1.889726e+02=T 90.00000=T Traj:=T positionsangstrom=T Step:=T 0=T Bead:=T pbc="F F F"
C      -46.93980000     -32.71470000     -73.30780000
C      -47.49160000     -33.79560000     -72.59810000
C      -47.63520000     -33.71510000     -71.18970000
C      -47.28790000     -32.53100000     -70.52530000
C      -46.78730000     -31.41930000     -71.25630000
C      -46.72130000     -31.51630000     -72.66290000
H      -46.62130000     -32.80400000     -74.35670000
H      -48.04570000     -34.47170000     -70.48430000
H      -46.48070000     -30.54250000     -70.74500000
H      -46.32100000     -30.66680000     -73.10700000
C      -47.73530000     -32.54710000     -69.06010000
H      -48.57460000     -33.21920000     -69.10320000
H      -48.11410000     -31.59470000     -68.70620000
C      -47.71430000     -35.02420000     -73.42280000
H      -48.40920000     -35.67460000     -72.90850000
H      -48.27300000     -34.79710000     -74.33020000
S      -46.54340000     -33.00270000     -67.77800000
S      -46.20260000     -35.98470000     -73.80090000
C      -45.63630000     -34.56390000     -68.40810000
H      -45.80380000     -35.35210000     -67.66100000
H      -46.31330000     -34.97240000     -69.25360000
C      -45.48660000     -36.26510000     -72.10350000
H      -45.65790000     -37.29180000     -71.84120000
H      -46.16030000     -35.64490000     -71.43550000
C      -43.97670000     -35.92480000     -72.16080000
H      -43.55840000     -36.39340000     -71.28320000
H      -43.53160000     -36.45780000     -72.93890000
C      -44.21530000     -34.42690000     -68.71330000
H      -43.79230000     -35.37740000     -69.09040000
H      -43.54820000     -34.19560000     -67.86980000
C      -43.85940000     -33.34670000     -69.74120000
C      -43.70130000     -32.10010000     -69.23660000
C      -43.80430000     -33.39790000     -71.23630000
H      -43.54900000     -31.93780000     -68.13330000
C      -43.58180000     -32.11970000     -71.73510000
C      -43.69020000     -34.45220000     -72.30300000
C      -43.53960000     -33.85670000     -73.48060000
S      -43.23430000     -30.88290000     -70.48220000
S      -43.31650000     -32.12130000     -73.40660000
H      -43.28810000     -34.38340000     -74.34810000
