40
Properties=species:S:1:pos:R:3 #=T CELL(abcABC):=T 1.889726e+02=T 90.00000=T Traj:=T positionsangstrom=T Step:=T 0=T Bead:=T pbc="F F F"
C      -41.74320000     -32.38970000     -70.68970000
C      -42.36740000     -31.56290000     -71.66080000
C      -43.41480000     -30.70540000     -71.27940000
C      -43.89450000     -30.80930000     -69.95780000
C      -43.18550000     -31.60370000     -69.05150000
C      -42.14200000     -32.44430000     -69.39890000
H      -40.80160000     -32.89050000     -70.96710000
H      -44.05540000     -30.13630000     -71.93150000
H      -43.48920000     -31.57000000     -67.96370000
H      -41.57850000     -33.01820000     -68.65240000
C      -45.13910000     -29.94230000     -69.38130000
H      -44.83290000     -28.92400000     -69.23910000
H      -45.29480000     -30.26770000     -68.32940000
C      -41.92740000     -31.57360000     -73.09370000
H      -42.52410000     -30.93590000     -73.64090000
H      -40.85420000     -31.35140000     -73.27190000
S      -46.73530000     -29.99370000     -70.19880000
S      -42.21660000     -33.33700000     -73.75520000
C      -46.97270000     -31.66080000     -70.78100000
H      -48.04590000     -31.67090000     -70.96420000
H      -46.44770000     -31.77340000     -71.75510000
C      -44.10710000     -33.56200000     -73.57890000
H      -44.34970000     -34.33620000     -74.25810000
H      -44.61200000     -32.59630000     -73.84140000
C      -44.44380000     -33.93950000     -72.08090000
H      -43.60200000     -34.22230000     -71.63000000
H      -44.84060000     -33.09630000     -71.60050000
C      -46.67150000     -32.76230000     -69.80340000
H      -47.04550000     -32.55810000     -68.78770000
H      -45.63900000     -32.92020000     -69.71060000
C      -47.23440000     -34.07690000     -70.28320000
C      -48.44050000     -34.55890000     -69.82190000
C      -46.71350000     -35.00140000     -71.29330000
H      -49.14470000     -34.04260000     -69.20230000
C      -47.59950000     -36.06190000     -71.52020000
C      -45.45780000     -35.08360000     -72.05800000
C      -45.46390000     -36.26610000     -72.78290000
S      -49.02550000     -36.05120000     -70.56370000
S      -46.90480000     -37.27920000     -72.63200000
H      -44.73610000     -36.65050000     -73.44820000
