40
Properties=species:S:1:pos:R:3 #=T CELL(abcABC):=T 1.889726e+02=T 90.00000=T Traj:=T positionsangstrom=T Step:=T 0=T Bead:=T pbc="F F F"
C      -41.92350000     -32.12530000     -70.68260000
C      -42.72400000     -31.39810000     -71.54620000
C      -43.84010000     -30.70470000     -71.07840000
C      -44.07940000     -30.64780000     -69.71920000
C      -43.22780000     -31.27560000     -68.82360000
C      -42.16830000     -32.02550000     -69.30930000
H      -41.00090000     -32.64190000     -70.95510000
H      -44.39600000     -30.21430000     -71.86730000
H      -43.46920000     -31.24130000     -67.79250000
H      -41.51520000     -32.61530000     -68.62670000
C      -45.31100000     -29.98290000     -69.08130000
H      -45.14140000     -28.98330000     -68.61670000
H      -45.54470000     -30.66460000     -68.25970000
C      -42.53610000     -31.49350000     -73.05670000
H      -43.34910000     -31.11160000     -73.65050000
H      -41.67230000     -31.00860000     -73.41110000
S      -46.73050000     -30.01210000     -70.34260000
S      -42.12450000     -33.23600000     -73.70410000
C      -46.75870000     -31.71690000     -71.03310000
H      -47.70470000     -31.75810000     -71.59510000
H      -46.01890000     -31.84690000     -71.84960000
C      -43.71650000     -34.18330000     -73.65320000
H      -43.51240000     -35.21860000     -74.05860000
H      -44.49100000     -33.68430000     -74.27510000
C      -44.24750000     -34.25580000     -72.24360000
H      -43.40630000     -34.74730000     -71.52360000
H      -44.63030000     -33.17760000     -71.87420000
C      -46.44040000     -32.81030000     -69.99500000
H      -46.66420000     -32.37010000     -69.06250000
H      -45.35780000     -32.84920000     -69.86760000
C      -47.08770000     -34.16210000     -70.25930000
C      -48.32460000     -34.56580000     -69.76140000
C      -46.59890000     -35.07190000     -71.33800000
H      -48.92480000     -34.23150000     -68.93400000
C      -47.46920000     -36.14400000     -71.50790000
C      -45.47800000     -35.15480000     -72.20900000
C      -45.55650000     -36.26680000     -73.00420000
S      -48.79790000     -36.12620000     -70.43790000
S      -47.02410000     -37.22700000     -72.72630000
H      -44.83450000     -36.73080000     -73.58410000
