40
Properties=species:S:1:pos:R:3 #=T CELL(abcABC):=T 1.889726e+02=T 90.00000=T Traj:=T positionsangstrom=T Step:=T 0=T Bead:=T pbc="F F F"
C      -46.45810000     -31.67120000     -72.79740000
C      -47.52930000     -32.48360000     -72.45320000
C      -48.00010000     -32.52390000     -71.12270000
C      -47.30890000     -31.85410000     -70.14750000
C      -46.21530000     -31.01700000     -70.45400000
C      -45.85760000     -30.90160000     -71.80170000
H      -46.11440000     -31.64130000     -73.82750000
H      -48.82180000     -33.12480000     -70.86420000
H      -45.68150000     -30.65880000     -69.63000000
H      -45.18630000     -30.13420000     -71.98800000
C      -47.61520000     -32.00530000     -68.63200000
H      -48.66130000     -32.19200000     -68.45920000
H      -47.32570000     -31.22080000     -67.92270000
C      -48.10530000     -33.38990000     -73.53460000
H      -48.82900000     -34.15670000     -73.16840000
H      -48.57710000     -32.87280000     -74.35070000
S      -46.46690000     -33.32180000     -67.98700000
S      -46.83010000     -34.49720000     -74.29980000
C      -46.54760000     -34.66270000     -69.22890000
H      -47.20040000     -35.49140000     -68.99160000
H      -46.96080000     -34.23800000     -70.15120000
C      -46.57880000     -35.62750000     -72.86690000
H      -47.21170000     -36.56270000     -73.03290000
H      -46.89140000     -35.09940000     -71.94270000
C      -45.10200000     -35.99310000     -72.70040000
H      -45.01210000     -36.64980000     -71.83370000
H      -44.83170000     -36.50100000     -73.60020000
C      -45.10070000     -35.29720000     -69.33580000
H      -45.25500000     -36.21450000     -69.95300000
H      -44.79140000     -35.45260000     -68.28840000
C      -44.06500000     -34.33660000     -69.87260000
C      -43.21410000     -33.55500000     -69.04550000
C      -43.89830000     -34.08500000     -71.26140000
H      -43.34250000     -33.57260000     -67.99350000
C      -42.96310000     -33.03310000     -71.48670000
C      -44.23430000     -34.72180000     -72.52130000
C      -43.56640000     -34.19620000     -73.61910000
S      -42.24510000     -32.42210000     -70.00190000
S      -42.52990000     -32.81170000     -73.17980000
H      -43.85790000     -34.38690000     -74.66630000
