40
Properties=species:S:1:pos:R:3 #=T CELL(abcABC):=T 1.889726e+02=T 90.00000=T Traj:=T positionsangstrom=T Step:=T 0=T Bead:=T pbc="F F F"
C      -46.14330000     -31.58090000     -72.84050000
C      -47.33100000     -32.35440000     -72.73270000
C      -47.90010000     -32.51330000     -71.44560000
C      -47.27140000     -31.97750000     -70.32230000
C      -46.12340000     -31.20590000     -70.47780000
C      -45.62080000     -30.96510000     -71.74230000
H      -45.76520000     -31.34830000     -73.83290000
H      -48.80390000     -33.20450000     -71.32490000
H      -45.53080000     -30.87710000     -69.67290000
H      -44.75510000     -30.29470000     -71.89990000
C      -47.76170000     -32.27270000     -68.93210000
H      -48.71140000     -32.89860000     -68.83150000
H      -47.99470000     -31.28910000     -68.52780000
C      -47.76580000     -33.10360000     -73.98590000
H      -48.89650000     -33.02510000     -74.03460000
H      -47.42950000     -32.60270000     -74.80140000
S      -46.46600000     -33.05820000     -67.80050000
S      -47.28060000     -34.94590000     -74.09900000
C      -46.18010000     -34.70160000     -68.67000000
H      -46.54540000     -35.50110000     -68.07100000
H      -46.74180000     -34.63990000     -69.61270000
C      -46.67540000     -35.56530000     -72.42760000
H      -47.39220000     -36.32170000     -72.21230000
H      -46.87180000     -34.77750000     -71.68910000
C      -45.19900000     -36.06870000     -72.30830000
H      -45.09020000     -36.62880000     -71.37960000
H      -44.95090000     -36.73290000     -73.10050000
C      -44.63900000     -35.08620000     -68.86290000
H      -44.70000000     -36.13910000     -69.27090000
H      -44.09510000     -35.07510000     -67.83910000
C      -43.92670000     -34.14770000     -69.79110000
C      -43.20620000     -33.06880000     -69.20860000
C      -43.64600000     -34.25730000     -71.19260000
H      -43.24250000     -32.83100000     -68.14600000
C      -42.87150000     -33.11610000     -71.67150000
C      -44.19700000     -34.92710000     -72.35080000
C      -43.83060000     -34.45020000     -73.56650000
S      -42.34040000     -32.13080000     -70.35500000
S      -42.84780000     -32.95540000     -73.40430000
H      -44.26300000     -34.69500000     -74.56640000
