40
Properties=species:S:1:pos:R:3 #=T CELL(abcABC):=T 1.889726e+02=T 90.00000=T Traj:=T positionsangstrom=T Step:=T 0=T Bead:=T pbc="F F F"
C      -46.42890000     -31.56800000     -72.91870000
C      -47.55190000     -32.33360000     -72.71340000
C      -47.99780000     -32.50580000     -71.38280000
C      -47.28920000     -31.98160000     -70.30800000
C      -46.10660000     -31.27200000     -70.52800000
C      -45.72720000     -31.04270000     -71.81120000
H      -46.06160000     -31.35610000     -73.93250000
H      -48.78830000     -33.21080000     -71.19260000
H      -45.55730000     -30.86630000     -69.66220000
H      -44.85280000     -30.48840000     -72.08240000
C      -47.70410000     -32.22000000     -68.88380000
H      -48.69890000     -32.68350000     -68.85230000
H      -47.97900000     -31.22070000     -68.45890000
C      -48.16380000     -33.16080000     -73.89130000
H      -49.20930000     -33.28390000     -73.87010000
H      -47.98040000     -32.54060000     -74.83910000
S      -46.55370000     -33.29780000     -67.87230000
S      -47.25380000     -34.78820000     -74.20380000
C      -46.29750000     -34.85120000     -68.81080000
H      -46.89640000     -35.58560000     -68.21060000
H      -46.91660000     -34.83480000     -69.74420000
C      -46.73150000     -35.45330000     -72.55280000
H      -47.34680000     -36.34930000     -72.30930000
H      -47.00320000     -34.76130000     -71.73360000
C      -45.25930000     -35.80870000     -72.48130000
H      -45.27130000     -36.49270000     -71.63430000
H      -45.01830000     -36.51730000     -73.33390000
C      -44.84270000     -35.11430000     -69.08520000
H      -44.63090000     -36.01890000     -69.72030000
H      -44.32650000     -35.34820000     -68.11300000
C      -44.05860000     -34.08690000     -69.77610000
C      -43.35460000     -33.11420000     -69.13820000
C      -43.81360000     -33.94380000     -71.25550000
H      -43.17710000     -33.07760000     -68.02610000
C      -42.80910000     -33.05370000     -71.54560000
C      -44.24510000     -34.67980000     -72.45290000
C      -43.54340000     -34.27510000     -73.53960000
S      -42.17280000     -32.24470000     -70.13470000
S      -42.29680000     -33.08040000     -73.19940000
H      -43.49740000     -34.73260000     -74.49720000
