40
Properties=species:S:1:pos:R:3 #=T CELL(abcABC):=T 1.889726e+02=T 90.00000=T Traj:=T positionsangstrom=T Step:=T 0=T Bead:=T pbc="F F F"
C      -47.49810000     -32.07310000     -68.54350000
C      -46.26670000     -32.12990000     -69.17380000
C      -45.75650000     -33.36740000     -69.61920000
C      -46.38460000     -34.56990000     -69.28020000
C      -47.48200000     -34.48220000     -68.36010000
C      -47.97660000     -33.26020000     -67.93930000
H      -48.03810000     -31.12160000     -68.33220000
H      -44.87530000     -33.42080000     -70.26450000
H      -47.90540000     -35.40590000     -68.00810000
H      -48.90020000     -33.27730000     -67.36000000
C      -45.87140000     -35.87260000     -69.75560000
H      -45.91100000     -36.59500000     -68.95370000
H      -44.83620000     -35.80870000     -70.27710000
C      -45.64970000     -30.84790000     -69.55440000
H      -45.83460000     -30.11020000     -68.73540000
H      -44.63500000     -30.98600000     -69.86560000
S      -46.90060000     -36.59500000     -71.21080000
S      -46.50100000     -29.96860000     -70.96660000
C      -47.11830000     -35.10850000     -72.38700000
H      -48.15980000     -35.17460000     -72.74320000
H      -46.97080000     -34.18040000     -71.79350000
C      -47.02800000     -31.30800000     -72.13500000
H      -48.06190000     -31.03240000     -72.40240000
H      -47.24530000     -32.22140000     -71.60000000
C      -45.99350000     -31.56200000     -73.24450000
H      -46.35980000     -32.27420000     -73.94580000
H      -45.69860000     -30.68000000     -73.84250000
C      -46.06370000     -35.11180000     -73.52970000
H      -46.32650000     -34.37970000     -74.27550000
H      -46.10750000     -36.05990000     -74.13760000
C      -44.69850000     -34.82070000     -73.12350000
C      -43.68800000     -35.77420000     -73.10950000
C      -44.23390000     -33.46280000     -72.72160000
H      -43.83550000     -36.74640000     -73.47330000
C      -42.89200000     -33.51040000     -72.41460000
C      -44.75490000     -32.12840000     -72.66670000
C      -43.75490000     -31.23490000     -72.27790000
S      -42.19660000     -35.05400000     -72.50820000
S      -42.22050000     -32.04040000     -71.87270000
H      -43.95480000     -30.13850000     -72.27350000
