40
Properties=species:S:1:pos:R:3 #=T CELL(abcABC):=T 1.889726e+02=T 90.00000=T Traj:=T positionsangstrom=T Step:=T 0=T Bead:=T pbc="F F F"
C      -46.16850000     -31.68220000     -72.85530000
C      -47.37600000     -32.43290000     -72.75360000
C      -47.90780000     -32.60160000     -71.44240000
C      -47.33410000     -32.02110000     -70.29960000
C      -46.17150000     -31.20020000     -70.49330000
C      -45.59300000     -31.03120000     -71.74480000
H      -45.62900000     -31.58650000     -73.76060000
H      -48.89640000     -33.03780000     -71.42790000
H      -45.72050000     -30.73180000     -69.64070000
H      -44.76720000     -30.33950000     -71.97520000
C      -47.86370000     -32.39460000     -68.96580000
H      -48.56350000     -33.16680000     -68.88030000
H      -48.15640000     -31.45610000     -68.48950000
C      -48.09950000     -33.12500000     -73.88360000
H      -49.16140000     -33.32670000     -73.69950000
H      -47.90140000     -32.72310000     -74.88300000
S      -46.40570000     -33.13170000     -68.03570000
S      -47.33320000     -34.85480000     -74.06270000
C      -46.23750000     -34.68650000     -68.95800000
H      -46.83970000     -35.43080000     -68.44970000
H      -46.65930000     -34.53250000     -69.95310000
C      -46.82160000     -35.34280000     -72.37130000
H      -47.46190000     -36.17570000     -72.04790000
H      -46.81970000     -34.51060000     -71.63280000
C      -45.37630000     -35.86490000     -72.40000000
H      -45.26340000     -36.56410000     -71.51070000
H      -45.17950000     -36.36060000     -73.30340000
C      -44.70610000     -35.12350000     -69.01900000
H      -44.58590000     -36.05310000     -69.52920000
H      -44.35970000     -35.16240000     -68.04780000
C      -43.92790000     -34.10600000     -69.75260000
C      -43.17330000     -33.15450000     -69.12620000
C      -43.81050000     -34.02440000     -71.19420000
H      -43.20190000     -32.92930000     -68.02330000
C      -42.88100000     -33.08940000     -71.58080000
C      -44.25700000     -34.77790000     -72.32930000
C      -43.62520000     -34.44530000     -73.48550000
S      -42.33350000     -32.05330000     -70.24850000
S      -42.43680000     -33.14780000     -73.23490000
H      -43.74350000     -34.77850000     -74.50440000
