40
Properties=species:S:1:pos:R:3 #=T CELL(abcABC):=T 1.889726e+02=T 90.00000=T Traj:=T positionsangstrom=T Step:=T 0=T Bead:=T pbc="F F F"
C      -46.22420000     -31.61100000     -72.68890000
C      -47.38090000     -32.39040000     -72.43210000
C      -47.95260000     -32.43160000     -71.17850000
C      -47.37820000     -31.77870000     -70.09220000
C      -46.26300000     -30.89110000     -70.36480000
C      -45.70900000     -30.80760000     -71.64690000
H      -45.71930000     -31.69070000     -73.65630000
H      -48.88910000     -33.06140000     -70.99280000
H      -45.93760000     -30.30160000     -69.51560000
H      -44.81670000     -30.20080000     -71.79600000
C      -47.68710000     -32.13760000     -68.69430000
H      -48.65550000     -32.62830000     -68.68760000
H      -47.73180000     -31.30280000     -67.93010000
C      -48.06490000     -33.23090000     -73.44400000
H      -48.94770000     -33.81030000     -73.10340000
H      -48.42470000     -32.61750000     -74.28050000
S      -46.39630000     -33.31760000     -68.09520000
S      -46.80280000     -34.45160000     -74.23540000
C      -46.50800000     -34.72300000     -69.29820000
H      -47.41110000     -35.28790000     -69.01800000
H      -46.77780000     -34.24110000     -70.24990000
C      -46.53090000     -35.76900000     -73.07500000
H      -47.06300000     -36.63080000     -73.30600000
H      -47.06200000     -35.47940000     -72.15450000
C      -45.02320000     -36.04590000     -72.85280000
H      -44.95310000     -36.82920000     -72.01090000
H      -44.60340000     -36.45770000     -73.72560000
C      -45.10810000     -35.49460000     -69.42110000
H      -45.09190000     -36.43240000     -70.03550000
H      -44.85910000     -35.78930000     -68.39870000
C      -44.05460000     -34.53330000     -69.96770000
C      -43.37060000     -33.70830000     -69.07840000
C      -43.73590000     -34.29440000     -71.33540000
H      -43.38260000     -33.84980000     -68.05890000
C      -42.98840000     -33.11010000     -71.39430000
C      -44.16330000     -34.76460000     -72.62440000
C      -43.56410000     -34.04480000     -73.64930000
S      -42.45410000     -32.45390000     -69.88230000
S      -42.68010000     -32.64950000     -73.09240000
H      -43.69130000     -34.38210000     -74.68590000
