40
Properties=species:S:1:pos:R:3 #=T CELL(abcABC):=T 1.889726e+02=T 90.00000=T Traj:=T positionsangstrom=T Step:=T 0=T Bead:=T pbc="F F F"
C      -46.27980000     -31.52800000     -72.04920000
C      -47.39330000     -32.37230000     -72.15380000
C      -47.93930000     -32.94920000     -70.95720000
C      -47.44100000     -32.50920000     -69.73700000
C      -46.44790000     -31.55840000     -69.66200000
C      -45.77750000     -31.15830000     -70.82400000
H      -45.69290000     -31.39360000     -72.94620000
H      -48.62090000     -33.74470000     -71.08800000
H      -46.19670000     -31.24900000     -68.67600000
H      -44.85130000     -30.63140000     -70.71920000
C      -47.85740000     -33.28510000     -68.48740000
H      -48.78100000     -33.74970000     -68.61100000
H      -47.84300000     -32.62410000     -67.65160000
C      -47.97140000     -32.74040000     -73.42390000
H      -48.86840000     -33.36900000     -73.43370000
H      -48.30940000     -31.82950000     -73.92890000
S      -46.59080000     -34.58460000     -67.99960000
S      -46.76890000     -33.65970000     -74.54440000
C      -46.36060000     -35.52600000     -69.61350000
H      -46.83390000     -36.51090000     -69.51750000
H      -46.88100000     -35.05180000     -70.50340000
C      -46.44470000     -35.11460000     -73.54070000
H      -46.71300000     -35.98700000     -74.19740000
H      -47.07890000     -35.32740000     -72.66680000
C      -44.93060000     -35.34880000     -73.30800000
H      -44.77780000     -36.18020000     -72.56190000
H      -44.58520000     -35.63970000     -74.33190000
C      -44.79430000     -35.74190000     -69.98500000
H      -44.70150000     -36.25690000     -70.93900000
H      -44.28730000     -36.38080000     -69.23800000
C      -43.99910000     -34.48680000     -70.22380000
C      -43.44900000     -33.69800000     -69.19300000
C      -43.78980000     -33.87270000     -71.48870000
H      -43.38210000     -33.96630000     -68.15160000
C      -43.00190000     -32.74390000     -71.48900000
C      -44.09030000     -34.20550000     -72.91880000
C      -43.48760000     -33.39160000     -73.78770000
S      -42.52630000     -32.35770000     -69.84180000
S      -42.60320000     -32.02050000     -72.99130000
H      -43.65150000     -33.52520000     -74.87470000
