40
Properties=species:S:1:pos:R:3 #=T CELL(abcABC):=T 1.889726e+02=T 90.00000=T Traj:=T positionsangstrom=T Step:=T 0=T Bead:=T pbc="F F F"
C      -46.25110000     -31.32870000     -72.74940000
C      -47.21950000     -32.27520000     -72.53990000
C      -47.59230000     -32.67000000     -71.24980000
C      -47.08300000     -32.05400000     -70.11060000
C      -46.11500000     -31.00210000     -70.34400000
C      -45.63530000     -30.78690000     -71.61080000
H      -45.85970000     -31.29640000     -73.79080000
H      -48.23730000     -33.53440000     -71.13450000
H      -45.56860000     -30.50310000     -69.55840000
H      -44.91130000     -29.96070000     -71.78040000
C      -47.60810000     -32.49840000     -68.74320000
H      -48.63630000     -32.90230000     -68.73850000
H      -47.58110000     -31.64910000     -68.09270000
C      -47.86650000     -32.87180000     -73.73310000
H      -48.87370000     -33.33810000     -73.48770000
H      -47.96800000     -32.19960000     -74.59780000
S      -46.57190000     -33.83510000     -67.88410000
S      -46.80670000     -34.20990000     -74.54060000
C      -46.61640000     -35.26960000     -69.00660000
H      -46.98940000     -36.24740000     -68.67230000
H      -47.30170000     -35.03920000     -69.82220000
C      -46.56370000     -35.43090000     -73.13810000
H      -47.09470000     -36.36040000     -73.46780000
H      -47.04970000     -34.94590000     -72.35700000
C      -45.13340000     -35.74880000     -72.93810000
H      -45.08270000     -36.43330000     -72.11960000
H      -44.85000000     -36.35760000     -73.86170000
C      -45.21860000     -35.54040000     -69.50760000
H      -45.47560000     -36.17960000     -70.40990000
H      -44.59230000     -36.10670000     -68.74130000
C      -44.33600000     -34.37940000     -69.94780000
C      -43.59270000     -33.66880000     -69.05990000
C      -44.00910000     -33.94470000     -71.31980000
H      -43.56230000     -33.87750000     -67.97480000
C      -43.07780000     -32.94890000     -71.36520000
C      -44.19120000     -34.60850000     -72.62100000
C      -43.46960000     -33.98320000     -73.60150000
S      -42.59480000     -32.42460000     -69.73820000
S      -42.43570000     -32.68460000     -72.95910000
H      -43.49240000     -34.12050000     -74.68570000
