40
Properties=species:S:1:pos:R:3 #=T CELL(abcABC):=T 1.889726e+02=T 90.00000=T Traj:=T positionsangstrom=T Step:=T 0=T Bead:=T pbc="F F F"
C      -46.27210000     -31.06200000     -72.63130000
C      -47.20580000     -32.11470000     -72.60780000
C      -47.57020000     -32.71870000     -71.33230000
C      -46.96430000     -32.28110000     -70.12980000
C      -45.88100000     -31.43530000     -70.26450000
C      -45.55460000     -30.71630000     -71.45360000
H      -46.17640000     -30.47650000     -73.54800000
H      -48.43490000     -33.28000000     -71.30370000
H      -45.43450000     -31.01710000     -69.42900000
H      -44.89730000     -29.91770000     -71.28640000
C      -47.49210000     -32.61180000     -68.71850000
H      -48.56490000     -32.75700000     -68.80660000
H      -47.43780000     -31.67000000     -68.02430000
C      -47.83650000     -32.69340000     -73.81720000
H      -48.83420000     -32.98420000     -73.49050000
H      -47.98160000     -32.06670000     -74.68760000
S      -46.78230000     -34.04100000     -67.82640000
S      -46.81620000     -34.06250000     -74.63400000
C      -46.54120000     -35.32900000     -69.14450000
H      -46.97880000     -36.30610000     -68.75120000
H      -47.08570000     -35.11110000     -70.07360000
C      -46.62220000     -35.32060000     -73.34870000
H      -47.19680000     -36.22590000     -73.53950000
H      -47.12490000     -34.94530000     -72.44890000
C      -45.17540000     -35.68790000     -73.05620000
H      -45.22630000     -36.41550000     -72.19780000
H      -44.76900000     -36.15590000     -73.92240000
C      -45.00240000     -35.61920000     -69.40910000
H      -44.91990000     -36.47810000     -70.06180000
H      -44.62560000     -35.93030000     -68.47100000
C      -44.30140000     -34.44510000     -69.93350000
C      -43.80510000     -33.52750000     -69.03350000
C      -43.83600000     -34.16500000     -71.26650000
H      -43.83880000     -33.53310000     -67.89130000
C      -42.91500000     -33.12050000     -71.29190000
C      -44.20080000     -34.61180000     -72.61490000
C      -43.52960000     -33.86350000     -73.56180000
S      -42.68940000     -32.35090000     -69.77290000
S      -42.45020000     -32.63610000     -72.90090000
H      -43.54210000     -34.07100000     -74.61810000
