40
Properties=species:S:1:pos:R:3 #=T CELL(abcABC):=T 1.889726e+02=T 90.00000=T Traj:=T positionsangstrom=T Step:=T 0=T Bead:=T pbc="F F F"
C      -46.38030000     -31.09350000     -72.24410000
C      -47.27370000     -32.11580000     -72.42070000
C      -47.82340000     -32.75940000     -71.28800000
C      -47.28420000     -32.55550000     -70.02020000
C      -46.25110000     -31.55070000     -69.85870000
C      -45.78950000     -30.79650000     -70.97040000
H      -45.89050000     -30.69080000     -73.13060000
H      -48.65760000     -33.48530000     -71.28080000
H      -45.88710000     -31.22350000     -68.91480000
H      -45.10820000     -30.02670000     -70.77930000
C      -47.77990000     -33.43760000     -68.88190000
H      -48.63940000     -34.05880000     -69.32020000
H      -48.20230000     -32.82170000     -68.03680000
C      -47.83430000     -32.55330000     -73.78530000
H      -48.90810000     -32.79900000     -73.67100000
H      -47.66710000     -31.80370000     -74.56410000
S      -46.60740000     -34.51540000     -68.04950000
S      -46.77840000     -33.88820000     -74.54950000
C      -46.17610000     -35.65000000     -69.50440000
H      -46.58330000     -36.58010000     -69.26130000
H      -46.80480000     -35.36380000     -70.38350000
C      -46.59610000     -35.17620000     -73.29440000
H      -47.25700000     -36.03760000     -73.44740000
H      -46.99570000     -34.88320000     -72.27730000
C      -45.03330000     -35.54220000     -73.13050000
H      -44.89670000     -36.41140000     -72.43530000
H      -44.67860000     -35.82770000     -74.08980000
C      -44.65700000     -35.72150000     -69.74600000
H      -44.42740000     -36.34750000     -70.54930000
H      -44.34120000     -36.08160000     -68.80190000
C      -44.18020000     -34.32670000     -70.00790000
C      -43.54590000     -33.54280000     -69.03210000
C      -43.90250000     -33.89340000     -71.36810000
H      -43.67770000     -33.72350000     -67.97840000
C      -43.07460000     -32.77410000     -71.28420000
C      -44.21780000     -34.30160000     -72.75430000
C      -43.56580000     -33.52380000     -73.64850000
S      -42.53630000     -32.26660000     -69.74670000
S      -42.59520000     -32.34690000     -72.89420000
H      -43.60820000     -33.61990000     -74.74590000
