40
Properties=species:S:1:pos:R:3 #=T CELL(abcABC):=T 1.889726e+02=T 90.00000=T Traj:=T positionsangstrom=T Step:=T 0=T Bead:=T pbc="F F F"
C      -45.87710000     -31.25460000     -72.04380000
C      -46.78200000     -32.25500000     -72.39300000
C      -47.61350000     -32.74340000     -71.41610000
C      -47.42200000     -32.36430000     -70.05440000
C      -46.39140000     -31.48270000     -69.74110000
C      -45.63700000     -30.85720000     -70.69380000
H      -45.12640000     -30.92390000     -72.81430000
H      -48.31410000     -33.48570000     -71.62710000
H      -46.17490000     -31.22350000     -68.72250000
H      -44.88130000     -30.08740000     -70.60390000
C      -48.09650000     -33.10320000     -68.98850000
H      -48.93880000     -33.62190000     -69.40920000
H      -48.48190000     -32.41260000     -68.17220000
C      -47.14810000     -32.43090000     -73.85900000
H      -48.21730000     -32.09470000     -74.03660000
H      -46.62630000     -31.60810000     -74.36200000
S      -46.92050000     -34.27160000     -68.16440000
S      -46.84170000     -34.00490000     -74.60490000
C      -46.65600000     -35.32790000     -69.63370000
H      -47.15940000     -36.32730000     -69.46530000
H      -47.07640000     -34.87660000     -70.54050000
C      -46.35000000     -35.21220000     -73.31630000
H      -46.85800000     -36.14340000     -73.56580000
H      -46.51540000     -34.84410000     -72.28370000
C      -44.87160000     -35.51020000     -73.31550000
H      -44.69370000     -36.30310000     -72.63810000
H      -44.42530000     -35.75150000     -74.34250000
C      -45.19960000     -35.76940000     -69.84500000
H      -45.18280000     -36.54330000     -70.61730000
H      -44.84810000     -36.33160000     -68.90990000
C      -44.26620000     -34.55930000     -70.10160000
C      -43.71250000     -33.93830000     -69.05090000
C      -43.79960000     -34.02490000     -71.37340000
H      -43.96800000     -34.15280000     -68.04960000
C      -42.96990000     -32.89970000     -71.26000000
C      -44.07680000     -34.35960000     -72.77180000
C      -43.45490000     -33.50280000     -73.65060000
S      -42.68100000     -32.48780000     -69.53980000
S      -42.49750000     -32.19830000     -72.79170000
H      -43.67630000     -33.43240000     -74.72920000
