40
Properties=species:S:1:pos:R:3 #=T CELL(abcABC):=T 1.889726e+02=T 90.00000=T Traj:=T positionsangstrom=T Step:=T 0=T Bead:=T pbc="F F F"
C      -46.46970000     -31.39560000     -72.02240000
C      -47.44360000     -32.41790000     -72.15370000
C      -47.87190000     -32.99690000     -70.97200000
C      -47.31500000     -32.59850000     -69.68310000
C      -46.34570000     -31.60720000     -69.62000000
C      -45.87020000     -31.05900000     -70.78780000
H      -46.30020000     -30.70640000     -72.83830000
H      -48.66350000     -33.77660000     -71.00980000
H      -45.78810000     -31.45090000     -68.75920000
H      -45.14490000     -30.29020000     -70.85090000
C      -47.80490000     -33.29580000     -68.43920000
H      -48.80010000     -33.83680000     -68.52200000
H      -47.95420000     -32.56210000     -67.61780000
C      -47.98070000     -32.80030000     -73.56630000
H      -48.89580000     -33.42760000     -73.44280000
H      -48.28670000     -31.87330000     -74.02460000
S      -46.49590000     -34.53950000     -67.89220000
S      -46.86800000     -33.72990000     -74.66770000
C      -46.36920000     -35.52450000     -69.44690000
H      -46.75160000     -36.49420000     -69.15110000
H      -47.05850000     -35.08430000     -70.23530000
C      -46.40690000     -35.01770000     -73.52720000
H      -46.89600000     -35.94500000     -73.67820000
H      -46.59210000     -34.56370000     -72.56060000
C      -44.80320000     -35.24190000     -73.63360000
H      -44.62670000     -36.29170000     -73.27950000
H      -44.41300000     -35.30030000     -74.62310000
C      -44.90710000     -35.83010000     -70.06440000
H      -45.07460000     -36.30470000     -71.02250000
H      -44.37290000     -36.54780000     -69.40200000
C      -44.11960000     -34.53910000     -70.30090000
C      -43.52890000     -33.84430000     -69.20910000
C      -43.71110000     -33.91270000     -71.53790000
H      -43.67250000     -33.88450000     -68.11970000
C      -43.00500000     -32.74440000     -71.42480000
C      -43.98250000     -34.12890000     -72.95070000
C      -43.46860000     -33.17570000     -73.76150000
S      -42.59090000     -32.46180000     -69.80780000
S      -42.53030000     -31.99040000     -72.91480000
H      -43.51010000     -33.12240000     -74.82250000
