40
Properties=species:S:1:pos:R:3 #=T CELL(abcABC):=T 1.889726e+02=T 90.00000=T Traj:=T positionsangstrom=T Step:=T 0=T Bead:=T pbc="F F F"
C      -44.71800000     -30.75290000     -68.53870000
C      -45.34790000     -30.35160000     -69.77650000
C      -46.67340000     -30.73830000     -69.96180000
C      -47.36280000     -31.69680000     -69.16820000
C      -46.81400000     -31.85660000     -67.88570000
C      -45.54070000     -31.34500000     -67.57930000
H      -43.72560000     -30.37860000     -68.18680000
H      -47.09910000     -30.38420000     -70.92370000
H      -47.42520000     -32.34190000     -67.12350000
H      -45.16550000     -31.51640000     -66.60470000
C      -48.71040000     -32.33500000     -69.40300000
H      -49.47270000     -31.57230000     -69.40130000
H      -48.87900000     -33.10110000     -68.64970000
C      -44.78220000     -29.31940000     -70.81140000
H      -45.40220000     -28.37660000     -70.67470000
H      -43.70610000     -29.17360000     -70.60500000
S      -48.96260000     -33.27130000     -71.04380000
S      -44.98370000     -29.78590000     -72.59730000
C      -47.52420000     -34.41040000     -70.93080000
H      -46.71890000     -33.90720000     -70.42940000
H      -47.54070000     -35.33670000     -70.37540000
C      -43.73170000     -31.18890000     -72.76570000
H      -42.91910000     -31.02080000     -72.04170000
H      -43.41430000     -31.10120000     -73.70570000
C      -44.44960000     -32.53380000     -72.50600000
H      -44.95700000     -32.54420000     -71.53980000
H      -45.27310000     -32.69090000     -73.30220000
C      -47.11150000     -34.96370000     -72.35050000
H      -47.16850000     -34.23240000     -73.15400000
H      -47.96150000     -35.69920000     -72.67450000
C      -45.73710000     -35.69510000     -72.36980000
C      -45.80870000     -37.09280000     -72.22450000
C      -44.38480000     -35.19500000     -72.39490000
H      -46.71980000     -37.71840000     -72.10740000
C      -43.46230000     -36.26110000     -72.25810000
C      -43.67920000     -33.92480000     -72.56960000
C      -42.32650000     -34.09690000     -72.52340000
S      -44.21660000     -37.82440000     -71.98860000
S      -41.77930000     -35.82210000     -72.61500000
H      -41.49170000     -33.44940000     -72.63720000
