40
Properties=species:S:1:pos:R:3 #=T CELL(abcABC):=T 1.889726e+02=T 90.00000=T Traj:=T positionsangstrom=T Step:=T 0=T Bead:=T pbc="F F F"
C      -45.21690000     -30.49900000     -68.54220000
C      -45.89190000     -30.20780000     -69.75080000
C      -47.10270000     -30.91030000     -70.09060000
C      -47.52800000     -31.97380000     -69.21360000
C      -46.76490000     -32.26200000     -68.08810000
C      -45.58830000     -31.57030000     -67.76570000
H      -44.48120000     -29.76450000     -68.17910000
H      -47.59890000     -30.68220000     -70.99720000
H      -47.04670000     -33.08400000     -67.48350000
H      -44.96890000     -31.92340000     -66.90110000
C      -48.72590000     -32.81200000     -69.42580000
H      -49.67390000     -32.29410000     -69.44880000
H      -48.75120000     -33.53910000     -68.61860000
C      -45.56750000     -29.07500000     -70.77390000
H      -46.55550000     -28.57840000     -70.93800000
H      -44.78920000     -28.42370000     -70.34130000
S      -48.75570000     -33.59010000     -71.15640000
S      -44.76450000     -29.69310000     -72.32750000
C      -47.35690000     -34.88430000     -71.14950000
H      -46.42390000     -34.61300000     -70.56850000
H      -47.58880000     -35.80820000     -70.57430000
C      -43.96090000     -31.25970000     -71.70930000
H      -43.98610000     -31.24980000     -70.61010000
H      -42.91300000     -31.15190000     -72.03990000
C      -44.68650000     -32.51490000     -72.35100000
H      -45.61270000     -32.57570000     -71.79220000
H      -44.84700000     -32.35620000     -73.41670000
C      -46.93730000     -35.07640000     -72.61260000
H      -46.79300000     -34.10240000     -73.22430000
H      -47.64080000     -35.65120000     -73.17340000
C      -45.55660000     -35.72150000     -72.74950000
C      -45.41890000     -37.09800000     -73.02340000
C      -44.28450000     -35.14850000     -72.51660000
H      -46.14780000     -37.84800000     -73.27710000
C      -43.23680000     -36.03170000     -72.54590000
C      -43.77770000     -33.79600000     -72.20710000
C      -42.46740000     -33.79690000     -71.91560000
S      -43.78250000     -37.67800000     -72.84050000
S      -41.84200000     -35.35080000     -71.79170000
H      -41.90010000     -32.87080000     -71.71770000
