40
Properties=species:S:1:pos:R:3 #=T CELL(abcABC):=T 1.889726e+02=T 90.00000=T Traj:=T positionsangstrom=T Step:=T 0=T Bead:=T pbc="F F F"
C      -44.91480000     -30.54300000     -68.63000000
C      -45.44520000     -30.32990000     -69.87390000
C      -46.68970000     -30.92410000     -70.17060000
C      -47.38380000     -31.66610000     -69.17710000
C      -46.72470000     -32.05060000     -68.00610000
C      -45.52350000     -31.37060000     -67.72020000
H      -43.92230000     -30.06810000     -68.35450000
H      -47.11060000     -30.80160000     -71.18320000
H      -47.25170000     -32.59160000     -67.21930000
H      -44.93550000     -31.42820000     -66.76200000
C      -48.79280000     -32.18430000     -69.44680000
H      -49.49070000     -31.35720000     -69.62720000
H      -49.25090000     -32.64380000     -68.55900000
C      -44.56120000     -29.49240000     -70.80250000
H      -44.83300000     -28.44310000     -70.87750000
H      -43.56250000     -29.39680000     -70.46630000
S      -48.76340000     -33.10590000     -70.98580000
S      -44.65680000     -29.89160000     -72.62890000
C      -47.33340000     -34.27370000     -70.86640000
H      -46.50180000     -33.70270000     -70.41200000
H      -47.66030000     -35.12990000     -70.22220000
C      -43.78830000     -31.51640000     -72.80660000
H      -42.97700000     -31.55460000     -72.03940000
H      -43.15340000     -31.51350000     -73.73330000
C      -44.68510000     -32.70880000     -72.65170000
H      -45.23330000     -32.53930000     -71.67160000
H      -45.44480000     -32.57930000     -73.41910000
C      -47.01510000     -34.77600000     -72.26770000
H      -46.63970000     -34.02750000     -72.94960000
H      -47.85960000     -35.33840000     -72.61120000
C      -45.84560000     -35.68840000     -72.10660000
C      -45.86420000     -37.00800000     -71.70170000
C      -44.48630000     -35.26460000     -72.31670000
H      -46.82300000     -37.63150000     -71.77630000
C      -43.50560000     -36.31370000     -72.25600000
C      -43.93640000     -33.95260000     -72.64550000
C      -42.59310000     -34.09380000     -72.76540000
S      -44.28140000     -37.82020000     -71.98390000
S      -41.90810000     -35.75110000     -72.54370000
H      -41.95950000     -33.33380000     -73.19490000
