40
Properties=species:S:1:pos:R:3 #=T CELL(abcABC):=T 1.889726e+02=T 90.00000=T Traj:=T positionsangstrom=T Step:=T 0=T Bead:=T pbc="F F F"
C      -45.94260000     -30.51160000     -74.81990000
C      -45.74670000     -31.80070000     -74.34660000
C      -44.66830000     -31.90780000     -73.48300000
C      -43.73160000     -30.93120000     -73.11990000
C      -43.97260000     -29.61170000     -73.55990000
C      -45.16360000     -29.47530000     -74.33860000
H      -46.78860000     -30.22700000     -75.49100000
H      -44.34700000     -32.90620000     -73.16060000
H      -43.42440000     -28.78400000     -73.12310000
H      -45.31140000     -28.46820000     -74.78340000
C      -42.36240000     -31.27180000     -72.53580000
H      -41.80080000     -30.37640000     -72.24370000
H      -41.79880000     -31.64760000     -73.39320000
C      -46.66650000     -32.91110000     -74.75950000
H      -46.83930000     -32.77910000     -75.84980000
H      -46.30550000     -34.01600000     -74.57110000
S      -42.39220000     -32.65790000     -71.34460000
S      -48.27610000     -32.78590000     -73.87510000
C      -43.03050000     -31.80920000     -69.86860000
H      -42.25000000     -32.08350000     -69.14660000
H      -43.21720000     -30.76290000     -70.01200000
C      -47.93670000     -34.10520000     -72.58360000
H      -47.44370000     -34.95880000     -73.05760000
H      -48.87910000     -34.48980000     -72.16450000
C      -47.04480000     -33.65470000     -71.43680000
H      -46.00540000     -33.35360000     -71.80360000
H      -47.51200000     -32.83630000     -70.87330000
C      -44.52390000     -32.27370000     -69.45080000
H      -45.20120000     -32.02330000     -70.26770000
H      -44.85960000     -31.61210000     -68.63130000
C      -44.69760000     -33.71820000     -69.12210000
C      -43.88150000     -34.18530000     -68.08570000
C      -45.66250000     -34.72980000     -69.47170000
H      -43.12120000     -33.60220000     -67.54540000
C      -45.60980000     -35.87170000     -68.72640000
C      -46.65090000     -34.76790000     -70.47090000
C      -47.28750000     -35.97180000     -70.45300000
S      -44.20440000     -35.87510000     -67.60690000
S      -46.78380000     -37.08320000     -69.21900000
H      -48.11790000     -36.22590000     -71.07420000
