40
Properties=species:S:1:pos:R:3 #=T CELL(abcABC):=T 1.889726e+02=T 90.00000=T Traj:=T positionsangstrom=T Step:=T 0=T Bead:=T pbc="F F F"
C      -45.36810000     -31.06490000     -72.24680000
C      -46.31030000     -31.99330000     -72.66620000
C      -47.33790000     -32.55340000     -71.79520000
C      -47.34180000     -32.24520000     -70.45720000
C      -46.36640000     -31.23050000     -70.06390000
C      -45.46690000     -30.63340000     -70.94570000
H      -44.45240000     -30.69470000     -72.78900000
H      -47.99060000     -33.29840000     -72.26830000
H      -46.37090000     -30.95130000     -69.00390000
H      -44.86450000     -29.84660000     -70.51150000
C      -48.29920000     -32.88380000     -69.49910000
H      -49.10260000     -33.33530000     -70.04480000
H      -48.51200000     -32.10240000     -68.76750000
C      -46.21630000     -32.44750000     -74.11990000
H      -46.82950000     -31.64930000     -74.65120000
H      -45.27470000     -32.34100000     -74.54960000
S      -47.39600000     -34.08160000     -68.42840000
S      -47.01550000     -34.04830000     -74.56300000
C      -46.90950000     -35.48410000     -69.48720000
H      -47.38970000     -36.47550000     -69.19810000
H      -47.33340000     -35.24080000     -70.51190000
C      -46.46870000     -35.36350000     -73.36720000
H      -46.83520000     -36.25640000     -73.78210000
H      -47.00380000     -35.12740000     -72.43390000
C      -44.91930000     -35.65280000     -73.13610000
H      -44.77100000     -36.56510000     -72.52370000
H      -44.57800000     -35.93910000     -74.16260000
C      -45.39350000     -35.73180000     -69.55060000
H      -45.16990000     -36.51740000     -70.35220000
H      -45.06260000     -36.17630000     -68.55870000
C      -44.50690000     -34.55290000     -69.88620000
C      -43.88980000     -33.83580000     -68.79110000
C      -43.97880000     -34.05950000     -71.12880000
H      -44.22410000     -33.95910000     -67.73680000
C      -43.06370000     -33.03760000     -71.02510000
C      -44.10620000     -34.47790000     -72.57260000
C      -43.17620000     -33.79070000     -73.36370000
S      -42.83010000     -32.55720000     -69.39150000
S      -42.22870000     -32.48110000     -72.45280000
H      -42.91550000     -33.79050000     -74.39900000
