40
Properties=species:S:1:pos:R:3 #=T CELL(abcABC):=T 1.889726e+02=T 90.00000=T Traj:=T positionsangstrom=T Step:=T 0=T Bead:=T pbc="F F F"
C      -41.91790000     -31.04520000     -72.31530000
C      -43.27420000     -31.12250000     -72.77540000
C      -44.23480000     -30.65710000     -71.86330000
C      -43.86630000     -30.28530000     -70.55060000
C      -42.54410000     -30.42350000     -70.09110000
C      -41.54710000     -30.82630000     -71.02450000
H      -41.16260000     -31.33520000     -72.95660000
H      -45.33850000     -30.72690000     -72.07130000
H      -42.18300000     -30.07580000     -69.13620000
H      -40.51010000     -30.90720000     -70.67090000
C      -44.88520000     -29.82980000     -69.47670000
H      -45.90550000     -29.64620000     -69.91900000
H      -44.56720000     -28.94300000     -68.96910000
C      -43.54320000     -31.32190000     -74.19780000
H      -44.60630000     -31.10310000     -74.44820000
H      -42.94200000     -30.68880000     -74.83110000
S      -45.09450000     -31.03550000     -68.12540000
S      -43.20060000     -33.04260000     -74.75640000
C      -46.28930000     -32.29050000     -68.74180000
H      -46.90770000     -32.62370000     -67.90880000
H      -46.90570000     -31.86880000     -69.49590000
C      -44.70950000     -34.00280000     -74.18940000
H      -44.52030000     -34.95070000     -74.66790000
H      -45.64540000     -33.69090000     -74.56460000
C      -44.94220000     -34.01700000     -72.69770000
H      -44.01970000     -34.19860000     -72.14720000
H      -45.36420000     -33.10850000     -72.33150000
C      -45.55450000     -33.44780000     -69.31600000
H      -45.11010000     -33.98940000     -68.50400000
H      -44.84120000     -33.14920000     -70.05080000
C      -46.57880000     -34.47670000     -69.87300000
C      -47.56330000     -34.93860000     -69.01970000
C      -46.65160000     -35.21120000     -71.14590000
H      -47.45980000     -34.73090000     -67.97820000
C      -47.54700000     -36.30680000     -71.03980000
C      -45.99570000     -35.15680000     -72.41130000
C      -46.39350000     -36.12400000     -73.27310000
S      -48.40250000     -36.42240000     -69.48550000
S      -47.69880000     -37.13570000     -72.54620000
H      -46.01840000     -36.24020000     -74.31550000
