40
Properties=species:S:1:pos:R:3 #=T CELL(abcABC):=T 1.889726e+02=T 90.00000=T Traj:=T positionsangstrom=T Step:=T 0=T Bead:=T pbc="F F F"
C      -42.10260000     -30.89160000     -72.23610000
C      -43.39290000     -31.11690000     -72.68030000
C      -44.49840000     -30.74610000     -71.84830000
C      -44.18950000     -30.08280000     -70.59670000
C      -42.85900000     -29.89280000     -70.18460000
C      -41.80050000     -30.37220000     -70.96430000
H      -41.35630000     -31.30460000     -72.83480000
H      -45.52440000     -30.85360000     -72.25000000
H      -42.64210000     -29.31970000     -69.32130000
H      -40.75240000     -30.42740000     -70.62890000
C      -45.34710000     -29.69990000     -69.77250000
H      -46.31410000     -29.87970000     -70.28100000
H      -45.31150000     -28.69810000     -69.31420000
C      -43.54010000     -31.56270000     -74.09620000
H      -44.57750000     -31.70540000     -74.42120000
H      -43.11500000     -30.87910000     -74.76590000
S      -45.38630000     -30.80750000     -68.29840000
S      -42.71300000     -33.28030000     -74.36720000
C      -46.49800000     -32.13220000     -68.82190000
H      -46.82930000     -32.60280000     -67.85730000
H      -47.46050000     -31.72370000     -69.29330000
C      -44.10000000     -34.44430000     -74.00510000
H      -43.63830000     -35.48890000     -74.03880000
H      -44.73610000     -34.50100000     -74.93870000
C      -44.95870000     -34.12060000     -72.76980000
H      -44.34520000     -33.89770000     -71.84720000
H      -45.57190000     -33.13130000     -72.95500000
C      -45.80300000     -33.14340000     -69.77380000
H      -44.74000000     -33.31350000     -69.42220000
H      -45.75600000     -32.62640000     -70.78590000
C      -46.54060000     -34.46860000     -69.93060000
C      -47.27670000     -35.08210000     -68.92830000
C      -46.62330000     -35.24830000     -71.14310000
H      -47.50210000     -34.78920000     -67.93160000
C      -47.56370000     -36.28880000     -71.09500000
C      -46.01000000     -35.19710000     -72.46770000
C      -46.35180000     -36.23160000     -73.24350000
S      -48.19810000     -36.48570000     -69.48600000
S      -47.50020000     -37.35770000     -72.48580000
H      -45.99040000     -36.53280000     -74.24460000
