40
Properties=species:S:1:pos:R:3 #=T CELL(abcABC):=T 1.889726e+02=T 90.00000=T Traj:=T positionsangstrom=T Step:=T 0=T Bead:=T pbc="F F F"
C      -47.06080000     -32.29810000     -68.09580000
C      -45.93990000     -32.23590000     -68.97150000
C      -45.41960000     -33.46380000     -69.51320000
C      -46.15470000     -34.62330000     -69.26720000
C      -47.24060000     -34.64900000     -68.43610000
C      -47.68930000     -33.50670000     -67.80120000
H      -47.40790000     -31.39120000     -67.61210000
H      -44.46870000     -33.42490000     -70.02730000
H      -47.75420000     -35.59810000     -68.33270000
H      -48.69850000     -33.60880000     -67.31360000
C      -45.63110000     -35.90920000     -69.92240000
H      -45.43820000     -36.72220000     -69.22120000
H      -44.64310000     -35.61730000     -70.41970000
C      -45.35610000     -30.87330000     -69.42090000
H      -45.30670000     -30.12900000     -68.61900000
H      -44.40590000     -31.04680000     -69.93010000
S      -46.87880000     -36.51270000     -71.25890000
S      -46.39190000     -30.00160000     -70.61260000
C      -47.43350000     -35.13590000     -72.39920000
H      -48.40820000     -35.46180000     -72.81880000
H      -47.69310000     -34.26020000     -71.80570000
C      -46.97720000     -31.30140000     -71.71380000
H      -48.06340000     -31.23680000     -71.90390000
H      -46.74220000     -32.18150000     -71.14030000
C      -46.16410000     -31.37850000     -73.08760000
H      -46.71170000     -31.93210000     -73.86140000
H      -45.96030000     -30.32080000     -73.45100000
C      -46.50320000     -34.90910000     -73.51930000
H      -46.98190000     -34.08100000     -74.03850000
H      -46.53410000     -35.80040000     -74.18040000
C      -45.06460000     -34.59710000     -73.16370000
C      -44.18580000     -35.71750000     -73.09400000
C      -44.38030000     -33.33070000     -72.88150000
H      -44.45970000     -36.70430000     -73.29220000
C      -43.06820000     -33.51410000     -72.49860000
C      -44.72320000     -31.90270000     -73.00240000
C      -43.58550000     -31.11980000     -72.75090000
S      -42.59640000     -35.19310000     -72.52490000
S      -42.16300000     -32.01370000     -72.32200000
H      -43.60900000     -29.98110000     -72.75840000
