40
Properties=species:S:1:pos:R:3 #=T CELL(abcABC):=T 1.889726e+02=T 90.00000=T Traj:=T positionsangstrom=T Step:=T 0=T Bead:=T pbc="F F F"
C      -45.29860000     -31.06510000     -72.19520000
C      -46.27700000     -32.01240000     -72.67510000
C      -47.28570000     -32.51200000     -71.80740000
C      -47.29100000     -32.19750000     -70.43670000
C      -46.31180000     -31.29110000     -70.01870000
C      -45.38200000     -30.70700000     -70.89180000
H      -44.61640000     -30.56340000     -72.82660000
H      -48.12090000     -33.13380000     -72.16310000
H      -46.33190000     -30.90400000     -68.99920000
H      -44.65780000     -30.00150000     -70.50870000
C      -48.31050000     -32.73730000     -69.46840000
H      -49.16600000     -33.19020000     -70.06360000
H      -48.82840000     -31.98070000     -68.88390000
C      -46.22990000     -32.46740000     -74.08920000
H      -46.78690000     -31.72760000     -74.63920000
H      -45.11380000     -32.55110000     -74.32730000
S      -47.47120000     -33.93080000     -68.38170000
S      -46.73580000     -34.18450000     -74.61470000
C      -46.99760000     -35.20900000     -69.70630000
H      -47.68740000     -35.99650000     -69.51850000
H      -47.26940000     -34.79780000     -70.65460000
C      -46.31090000     -35.28240000     -73.25340000
H      -47.05820000     -36.15390000     -73.34300000
H      -46.61790000     -34.77650000     -72.32830000
C      -44.83720000     -35.63480000     -73.21850000
H      -44.65060000     -36.58830000     -72.67730000
H      -44.45620000     -35.84230000     -74.20660000
C      -45.56240000     -35.68530000     -69.82580000
H      -45.50230000     -36.28890000     -70.72100000
H      -45.32320000     -36.33440000     -68.98930000
C      -44.56610000     -34.62820000     -69.96050000
C      -44.17640000     -33.87690000     -68.83190000
C      -43.92560000     -34.18470000     -71.16450000
H      -44.42920000     -34.07490000     -67.78360000
C      -43.03990000     -33.14700000     -70.93200000
C      -43.98350000     -34.56120000     -72.63330000
C      -43.22010000     -33.68950000     -73.33530000
S      -42.96760000     -32.67620000     -69.23480000
S      -42.30360000     -32.48690000     -72.45070000
H      -43.16410000     -33.63850000     -74.43560000
