40
Properties=species:S:1:pos:R:3 #=T CELL(abcABC):=T 1.889726e+02=T 90.00000=T Traj:=T positionsangstrom=T Step:=T 0=T Bead:=T pbc="F F F"
C      -42.14580000     -32.91070000     -72.41030000
C      -42.98580000     -31.76760000     -72.57230000
C      -43.20460000     -30.98500000     -71.41560000
C      -42.67130000     -31.31190000     -70.16510000
C      -41.85990000     -32.45340000     -70.03490000
C      -41.60330000     -33.24520000     -71.17170000
H      -41.93640000     -33.48590000     -73.35890000
H      -43.84320000     -30.10080000     -71.57060000
H      -41.55890000     -32.71560000     -69.00110000
H      -41.03320000     -34.17950000     -71.12800000
C      -43.03860000     -30.56190000     -68.90100000
H      -43.33350000     -29.52490000     -69.22290000
H      -42.12910000     -30.40100000     -68.35000000
C      -43.35340000     -31.21340000     -73.91260000
H      -43.90350000     -30.24340000     -73.79630000
H      -42.43980000     -30.91280000     -74.49590000
S      -44.39070000     -31.33060000     -67.90960000
S      -44.25930000     -32.37110000     -75.08830000
C      -45.82570000     -31.76760000     -68.99190000
H      -46.70710000     -31.98010000     -68.33870000
H      -46.13510000     -30.94090000     -69.58710000
C      -45.73660000     -33.04740000     -74.20910000
H      -46.32000000     -33.66620000     -74.91320000
H      -46.41270000     -32.27180000     -73.78010000
C      -45.22490000     -34.07260000     -73.15380000
H      -44.48380000     -34.77410000     -73.60780000
H      -44.60050000     -33.58130000     -72.35210000
C      -45.48810000     -33.05890000     -69.91820000
H      -44.53890000     -33.59590000     -69.73390000
H      -45.36940000     -32.53640000     -70.89570000
C      -46.64980000     -33.93970000     -70.05960000
C      -47.53570000     -34.22040000     -69.02720000
C      -46.90660000     -34.76920000     -71.21910000
H      -47.40010000     -34.01490000     -67.91030000
C      -47.93740000     -35.67670000     -71.01310000
C      -46.33250000     -34.88550000     -72.53020000
C      -46.94570000     -35.85480000     -73.29780000
S      -48.66670000     -35.57860000     -69.44230000
S      -48.21670000     -36.66170000     -72.43220000
H      -46.58370000     -36.20780000     -74.22060000
