40
Properties=species:S:1:pos:R:3 #=T CELL(abcABC):=T 1.889726e+02=T 90.00000=T Traj:=T positionsangstrom=T Step:=T 0=T Bead:=T pbc="F F F"
C      -42.00610000     -32.30420000     -72.42190000
C      -42.87310000     -31.28200000     -72.72570000
C      -43.54920000     -30.67250000     -71.68380000
C      -43.22370000     -30.92460000     -70.31670000
C      -42.22110000     -31.85280000     -70.05830000
C      -41.62850000     -32.55200000     -71.09160000
H      -41.45490000     -32.69960000     -73.27690000
H      -44.36580000     -29.99160000     -71.89970000
H      -42.08190000     -31.95370000     -68.98040000
H      -40.99200000     -33.37410000     -70.75140000
C      -43.98190000     -30.20450000     -69.24700000
H      -44.90740000     -29.86290000     -69.67000000
H      -43.50420000     -29.32240000     -68.77240000
C      -43.19130000     -30.94850000     -74.15380000
H      -43.86760000     -30.04230000     -74.18320000
H      -42.27400000     -30.67490000     -74.69510000
S      -44.50660000     -31.33930000     -67.87470000
S      -43.94900000     -32.39040000     -74.96160000
C      -45.77930000     -32.23170000     -68.76690000
H      -46.52410000     -32.50090000     -68.08900000
H      -46.19620000     -31.48170000     -69.47880000
C      -45.28820000     -33.10730000     -73.85050000
H      -46.16040000     -33.42530000     -74.44030000
H      -45.57310000     -32.35590000     -73.09030000
C      -44.87320000     -34.34190000     -73.03190000
H      -44.30580000     -35.05740000     -73.50710000
H      -44.25660000     -33.97050000     -72.17770000
C      -45.37850000     -33.51020000     -69.53700000
H      -44.54600000     -34.09840000     -68.96840000
H      -44.91200000     -33.15880000     -70.44480000
C      -46.47830000     -34.46600000     -69.85730000
C      -47.41340000     -34.84050000     -68.91690000
C      -46.68250000     -35.04230000     -71.17790000
H      -47.46200000     -34.38430000     -67.88460000
C      -47.83000000     -35.80830000     -71.13050000
C      -46.15090000     -35.05910000     -72.54280000
C      -46.91510000     -35.83250000     -73.36950000
S      -48.68310000     -35.85990000     -69.52120000
S      -48.34520000     -36.66000000     -72.60890000
H      -46.69980000     -36.06690000     -74.43460000
