40
Properties=species:S:1:pos:R:3 #=T CELL(abcABC):=T 1.889726e+02=T 90.00000=T Traj:=T positionsangstrom=T Step:=T 0=T Bead:=T pbc="F F F"
C      -41.89380000     -31.36700000     -72.21060000
C      -43.11280000     -30.97160000     -72.70480000
C      -44.06180000     -30.41250000     -71.80540000
C      -43.73300000     -30.16480000     -70.50390000
C      -42.47680000     -30.56120000     -70.03830000
C      -41.60990000     -31.19100000     -70.87170000
H      -41.08420000     -31.74190000     -72.83880000
H      -45.06130000     -30.07340000     -72.19840000
H      -42.28240000     -30.66560000     -68.98950000
H      -40.65420000     -31.37270000     -70.46920000
C      -44.87840000     -29.81450000     -69.52650000
H      -45.85530000     -29.81840000     -70.04860000
H      -44.88080000     -28.90450000     -68.92520000
C      -43.49500000     -31.22160000     -74.16540000
H      -44.51240000     -30.87780000     -74.24870000
H      -42.91500000     -30.58560000     -74.88620000
S      -44.93140000     -31.08040000     -68.09520000
S      -43.34190000     -32.94320000     -74.79830000
C      -46.12870000     -32.31960000     -68.75310000
H      -46.87520000     -32.64890000     -67.95620000
H      -46.76210000     -31.73440000     -69.48860000
C      -44.87530000     -33.76090000     -74.23230000
H      -44.91280000     -34.66820000     -74.94680000
H      -45.83940000     -33.21120000     -74.46260000
C      -44.76470000     -34.30270000     -72.79720000
H      -43.90660000     -35.03390000     -72.75440000
H      -44.50670000     -33.47740000     -72.12830000
C      -45.54970000     -33.56960000     -69.37960000
H      -44.77710000     -33.92490000     -68.67500000
H      -44.94680000     -33.23790000     -70.22950000
C      -46.54080000     -34.64640000     -69.71000000
C      -47.44760000     -35.22240000     -68.86450000
C      -46.66190000     -35.22150000     -71.07920000
H      -47.59390000     -34.80490000     -67.88800000
C      -47.64320000     -36.19650000     -71.09810000
C      -45.97610000     -35.16670000     -72.37110000
C      -46.51770000     -36.03590000     -73.26060000
S      -48.65890000     -36.29950000     -69.61780000
S      -47.72930000     -37.03420000     -72.62230000
H      -46.20300000     -36.17630000     -74.34000000
