40
Properties=species:S:1:pos:R:3 #=T CELL(abcABC):=T 1.889726e+02=T 90.00000=T Traj:=T positionsangstrom=T Step:=T 0=T Bead:=T pbc="F F F"
C      -45.82260000     -30.82870000     -72.80320000
C      -46.55930000     -31.87930000     -73.33150000
C      -47.42840000     -32.58730000     -72.47960000
C      -47.59340000     -32.28250000     -71.14690000
C      -46.74510000     -31.34350000     -70.56850000
C      -45.91680000     -30.60070000     -71.38930000
H      -45.18330000     -30.17780000     -73.40560000
H      -48.02490000     -33.28210000     -72.97970000
H      -46.79880000     -31.17990000     -69.50220000
H      -45.26730000     -29.82650000     -70.91840000
C      -48.60470000     -32.93820000     -70.24730000
H      -49.28380000     -33.54670000     -70.81190000
H      -49.10640000     -32.23770000     -69.59400000
C      -46.40380000     -32.36660000     -74.76570000
H      -47.18480000     -33.13060000     -74.99360000
H      -46.34490000     -31.58740000     -75.50470000
S      -47.85710000     -34.32210000     -69.17640000
S      -44.89870000     -33.46840000     -74.73430000
C      -47.03410000     -35.44690000     -70.35490000
H      -47.76830000     -36.30050000     -70.46260000
H      -46.82090000     -35.00720000     -71.26270000
C      -45.39550000     -35.00240000     -73.82980000
H      -45.75380000     -35.76590000     -74.54100000
H      -46.23110000     -34.80010000     -73.18190000
C      -44.15520000     -35.46200000     -73.02120000
H      -44.47910000     -36.30350000     -72.36110000
H      -43.28360000     -35.87680000     -73.66130000
C      -45.70520000     -36.10590000     -69.81030000
H      -45.47720000     -36.83740000     -70.64280000
H      -45.84960000     -36.69990000     -68.85250000
C      -44.74070000     -35.00350000     -69.64740000
C      -44.65820000     -34.46950000     -68.41150000
C      -43.93390000     -34.26820000     -70.67110000
H      -44.92440000     -35.03660000     -67.47270000
C      -43.30790000     -33.17120000     -70.08460000
C      -43.63780000     -34.36760000     -72.10160000
C      -42.87710000     -33.33440000     -72.48540000
S      -43.60710000     -33.07100000     -68.34970000
S      -42.53250000     -32.13120000     -71.20100000
H      -42.49760000     -33.24790000     -73.50740000
