40
Properties=species:S:1:pos:R:3 #=T CELL(abcABC):=T 1.889726e+02=T 90.00000=T Traj:=T positionsangstrom=T Step:=T 0=T Bead:=T pbc="F F F"
C      -45.87040000     -30.96170000     -72.79750000
C      -46.60810000     -32.07340000     -73.25120000
C      -47.48010000     -32.70000000     -72.36370000
C      -47.50170000     -32.34800000     -70.99360000
C      -46.68260000     -31.31940000     -70.53140000
C      -45.88190000     -30.59030000     -71.43280000
H      -45.35910000     -30.42410000     -73.57440000
H      -48.12820000     -33.53660000     -72.68890000
H      -46.73530000     -30.97530000     -69.53730000
H      -45.21260000     -29.70780000     -71.12970000
C      -48.57900000     -32.98410000     -70.12070000
H      -49.56080000     -33.34590000     -70.56360000
H      -48.94510000     -32.22540000     -69.42540000
C      -46.39150000     -32.39880000     -74.77980000
H      -47.25820000     -32.82380000     -75.37670000
H      -46.21960000     -31.39830000     -75.28210000
S      -47.85280000     -34.40020000     -68.99030000
S      -44.87430000     -33.43620000     -75.03730000
C      -47.14780000     -35.52950000     -70.32690000
H      -47.83160000     -36.37130000     -70.35380000
H      -47.07700000     -35.11650000     -71.37060000
C      -45.38350000     -34.90630000     -73.90460000
H      -45.69480000     -35.81020000     -74.46320000
H      -46.29540000     -34.55820000     -73.39220000
C      -44.32720000     -35.53370000     -72.91320000
H      -44.77530000     -36.27970000     -72.37820000
H      -43.60760000     -36.01690000     -73.53810000
C      -45.81630000     -35.98610000     -69.83100000
H      -45.17600000     -36.59090000     -70.51890000
H      -45.96090000     -36.56800000     -68.93360000
C      -44.81040000     -34.80740000     -69.53910000
C      -44.71200000     -34.17230000     -68.33710000
C      -44.00990000     -34.18160000     -70.63040000
H      -45.25030000     -34.49370000     -67.41250000
C      -43.22780000     -33.18570000     -70.11060000
C      -43.76580000     -34.37640000     -72.04900000
C      -42.87540000     -33.49260000     -72.55640000
S      -43.61040000     -32.82980000     -68.37210000
S      -42.30920000     -32.32920000     -71.32230000
H      -42.53520000     -33.45820000     -73.53860000
