40
Properties=species:S:1:pos:R:3 #=T CELL(abcABC):=T 1.889726e+02=T 90.00000=T Traj:=T positionsangstrom=T Step:=T 0=T Bead:=T pbc="F F F"
C      -41.95060000     -32.76600000     -72.66630000
C      -42.75940000     -31.61790000     -72.66380000
C      -43.04780000     -30.99270000     -71.49210000
C      -42.56940000     -31.50050000     -70.26150000
C      -41.86650000     -32.71800000     -70.21980000
C      -41.57130000     -33.37960000     -71.44100000
H      -41.49890000     -33.15500000     -73.60460000
H      -43.61440000     -30.03900000     -71.45810000
H      -41.59670000     -33.07430000     -69.24830000
H      -40.95600000     -34.32340000     -71.42050000
C      -42.84280000     -30.83750000     -68.92910000
H      -43.16270000     -29.77910000     -68.90940000
H      -41.97940000     -30.87560000     -68.28230000
C      -43.26690000     -31.06620000     -74.08230000
H      -43.83850000     -30.13300000     -73.97860000
H      -42.44350000     -30.78430000     -74.71520000
S      -44.15350000     -31.78940000     -67.93830000
S      -44.17740000     -32.34880000     -75.00990000
C      -45.69970000     -31.75030000     -69.06420000
H      -46.63200000     -31.79440000     -68.42850000
H      -45.66010000     -30.72490000     -69.46000000
C      -45.55780000     -32.95020000     -73.85460000
H      -46.40890000     -32.80990000     -74.52630000
H      -45.68500000     -32.24410000     -73.08170000
C      -45.31790000     -34.33650000     -73.30080000
H      -45.10000000     -35.00540000     -74.11960000
H      -44.41380000     -34.28930000     -72.68240000
C      -45.67550000     -32.77970000     -70.14580000
H      -44.72680000     -33.29380000     -69.91190000
H      -45.62040000     -32.38030000     -71.19260000
C      -46.73740000     -33.83110000     -70.08730000
C      -47.56020000     -33.98660000     -69.00800000
C      -47.07320000     -34.67170000     -71.19540000
H      -47.73200000     -33.42400000     -68.01710000
C      -48.13070000     -35.58060000     -70.86380000
C      -46.48240000     -34.90000000     -72.55770000
C      -47.23150000     -35.88200000     -73.15130000
S      -48.70510000     -35.31350000     -69.26850000
S      -48.55830000     -36.59010000     -72.25900000
H      -46.97300000     -36.15480000     -74.15450000
