40
Properties=species:S:1:pos:R:3 #=T CELL(abcABC):=T 1.889726e+02=T 90.00000=T Traj:=T positionsangstrom=T Step:=T 0=T Bead:=T pbc="F F F"
C      -41.91290000     -32.83120000     -72.88580000
C      -42.63070000     -31.65670000     -72.79080000
C      -42.95830000     -31.14600000     -71.53500000
C      -42.44880000     -31.62810000     -70.32210000
C      -41.72710000     -32.83870000     -70.39990000
C      -41.43410000     -33.40100000     -71.62370000
H      -41.82710000     -33.49740000     -73.72130000
H      -43.63700000     -30.32710000     -71.47920000
H      -41.33800000     -33.32720000     -69.48960000
H      -40.92230000     -34.35600000     -71.62180000
C      -42.76400000     -31.05690000     -69.00320000
H      -43.20780000     -30.08230000     -69.18960000
H      -41.88810000     -31.05150000     -68.30530000
C      -43.30860000     -31.02280000     -74.05150000
H      -43.90150000     -30.15220000     -73.74010000
H      -42.45530000     -30.73160000     -74.68980000
S      -44.05910000     -32.00410000     -68.02510000
S      -44.31390000     -32.29550000     -74.91210000
C      -45.56180000     -31.69040000     -69.05920000
H      -46.47560000     -31.76290000     -68.39530000
H      -45.57660000     -30.68250000     -69.39860000
C      -45.61250000     -32.79240000     -73.78170000
H      -46.48470000     -33.03330000     -74.37490000
H      -45.91660000     -31.96730000     -73.10900000
C      -45.36670000     -34.16370000     -73.09870000
H      -44.92490000     -34.87550000     -73.85550000
H      -44.54540000     -34.11300000     -72.31460000
C      -45.72990000     -32.62660000     -70.22110000
H      -44.82570000     -33.07970000     -70.49570000
H      -46.00650000     -31.99790000     -71.06530000
C      -46.76840000     -33.77380000     -70.07530000
C      -47.55580000     -33.99860000     -68.96690000
C      -47.09220000     -34.64790000     -71.17190000
H      -47.61820000     -33.43600000     -68.01690000
C      -48.16740000     -35.43670000     -70.86130000
C      -46.59910000     -34.82600000     -72.50400000
C      -47.28570000     -35.86920000     -73.10030000
S      -48.77300000     -35.18570000     -69.25830000
S      -48.58190000     -36.59670000     -72.09860000
H      -47.21010000     -36.20740000     -74.13360000
