40
Properties=species:S:1:pos:R:3 #=T CELL(abcABC):=T 1.889726e+02=T 90.00000=T Traj:=T positionsangstrom=T Step:=T 0=T Bead:=T pbc="F F F"
C      -45.57730000     -30.91920000     -67.93970000
C      -46.09790000     -32.21620000     -68.06690000
C      -47.12570000     -32.56220000     -68.88180000
C      -47.65850000     -31.50540000     -69.77060000
C      -47.17420000     -30.23440000     -69.59180000
C      -46.13780000     -29.86500000     -68.65840000
H      -44.78470000     -30.72980000     -67.21120000
H      -47.37390000     -33.66220000     -69.07240000
H      -47.62710000     -29.59730000     -70.27160000
H      -45.86320000     -28.82930000     -68.62520000
C      -48.74510000     -31.84750000     -70.75940000
H      -49.26580000     -30.89190000     -71.03310000
H      -49.45650000     -32.54780000     -70.34630000
C      -45.38430000     -33.30010000     -67.25130000
H      -45.30160000     -33.06630000     -66.19430000
H      -45.87190000     -34.21140000     -67.25660000
S      -48.09990000     -32.57460000     -72.35020000
S      -43.56310000     -33.53220000     -67.74120000
C      -48.05560000     -34.35950000     -71.83400000
H      -48.35050000     -34.40050000     -70.81440000
H      -48.76160000     -34.85520000     -72.37440000
C      -43.70780000     -33.39480000     -69.64400000
H      -43.06280000     -32.65480000     -70.11950000
H      -44.75860000     -33.17210000     -69.93020000
C      -43.42460000     -34.77500000     -70.32360000
H      -42.46950000     -35.10270000     -69.96620000
H      -44.06650000     -35.54010000     -69.86950000
C      -46.64650000     -35.03620000     -71.82720000
H      -46.72500000     -36.10950000     -71.73090000
H      -46.08970000     -34.78370000     -70.87810000
C      -45.79870000     -34.69540000     -72.98160000
C      -46.29320000     -34.69540000     -74.25930000
C      -44.34110000     -34.53880000     -72.86570000
H      -47.33900000     -34.82400000     -74.43470000
C      -43.81190000     -34.37310000     -74.17450000
C      -43.32520000     -34.63650000     -71.85850000
C      -42.05050000     -34.45540000     -72.40220000
S      -44.90490000     -34.46300000     -75.48520000
S      -42.07740000     -34.29830000     -74.14550000
H      -41.10540000     -34.44470000     -71.88480000
