40
Properties=species:S:1:pos:R:3 #=T CELL(abcABC):=T 1.889726e+02=T 90.00000=T Traj:=T positionsangstrom=T Step:=T 0=T Bead:=T pbc="F F F"
C      -45.54980000     -30.83610000     -68.03400000
C      -46.12440000     -32.07710000     -68.07650000
C      -47.12370000     -32.46840000     -68.99270000
C      -47.67430000     -31.53530000     -69.80070000
C      -47.10310000     -30.19030000     -69.79350000
C      -46.05880000     -29.84080000     -68.94650000
H      -44.56570000     -30.73620000     -67.59590000
H      -47.67520000     -33.38720000     -68.96180000
H      -47.54320000     -29.46620000     -70.50260000
H      -45.69170000     -28.82390000     -68.83680000
C      -48.77230000     -31.74060000     -70.70510000
H      -49.18390000     -30.81030000     -71.13850000
H      -49.62830000     -32.30980000     -70.24240000
C      -45.46260000     -33.19910000     -67.35910000
H      -45.44080000     -33.19770000     -66.20010000
H      -45.94200000     -34.19120000     -67.64110000
S      -48.20580000     -32.61040000     -72.28250000
S      -43.69400000     -33.49930000     -67.83050000
C      -48.08570000     -34.44750000     -71.92660000
H      -48.96610000     -34.73210000     -71.21670000
H      -48.36280000     -34.96350000     -72.86810000
C      -43.66990000     -33.31550000     -69.62760000
H      -42.75260000     -32.74580000     -69.91240000
H      -44.54300000     -32.71850000     -69.88020000
C      -43.71780000     -34.73390000     -70.32480000
H      -42.90930000     -35.37870000     -69.92940000
H      -44.68820000     -35.19370000     -70.19190000
C      -46.58790000     -34.80570000     -71.65910000
H      -46.52720000     -35.87050000     -71.27150000
H      -46.20490000     -34.14680000     -70.90830000
C      -45.71450000     -34.67540000     -72.89290000
C      -46.10790000     -34.70500000     -74.21540000
C      -44.27250000     -34.61790000     -72.83780000
H      -47.13930000     -34.78230000     -74.58390000
C      -43.67730000     -34.55740000     -74.12480000
C      -43.28360000     -34.61180000     -71.81270000
C      -41.97990000     -34.45360000     -72.28480000
S      -44.93980000     -34.55860000     -75.41040000
S      -41.93670000     -34.47070000     -74.02490000
H      -40.99120000     -34.48280000     -71.80060000
