40
Properties=species:S:1:pos:R:3 #=T CELL(abcABC):=T 1.889726e+02=T 90.00000=T Traj:=T positionsangstrom=T Step:=T 0=T Bead:=T pbc="F F F"
C      -45.75770000     -30.93790000     -72.18060000
C      -46.50620000     -31.73980000     -73.01950000
C      -47.42160000     -32.58110000     -72.49180000
C      -47.52600000     -32.73990000     -71.11030000
C      -46.67960000     -32.02080000     -70.23920000
C      -45.95270000     -30.94820000     -70.77710000
H      -44.90510000     -30.40270000     -72.58550000
H      -48.14290000     -33.01490000     -73.13100000
H      -46.67870000     -32.18600000     -69.12690000
H      -45.29770000     -30.33170000     -70.14370000
C      -48.61770000     -33.59960000     -70.60420000
H      -49.38400000     -33.77870000     -71.35590000
H      -49.13960000     -33.08650000     -69.80000000
C      -46.25310000     -31.73510000     -74.53930000
H      -47.18960000     -31.96510000     -75.07520000
H      -45.92370000     -30.75220000     -74.90940000
S      -48.12410000     -35.21210000     -69.82830000
S      -44.81030000     -32.76170000     -75.01050000
C      -46.75770000     -35.94500000     -70.86030000
H      -47.17080000     -36.78380000     -71.48070000
H      -46.58480000     -35.29030000     -71.70720000
C      -45.07270000     -34.53550000     -74.34830000
H      -44.93900000     -35.22040000     -75.17370000
H      -46.08540000     -34.60330000     -74.00860000
C      -44.13370000     -34.96080000     -73.16630000
H      -44.45470000     -35.94650000     -72.79530000
H      -43.15570000     -35.12960000     -73.56510000
C      -45.55380000     -36.25130000     -70.05840000
H      -44.83940000     -36.84790000     -70.63210000
H      -45.80370000     -36.75420000     -69.09280000
C      -44.77110000     -34.95550000     -69.72540000
C      -44.52160000     -34.69020000     -68.37690000
C      -44.19150000     -33.93680000     -70.64540000
H      -44.83820000     -35.17260000     -67.45740000
C      -43.53680000     -32.94340000     -69.85180000
C      -43.82180000     -33.94550000     -72.00000000
C      -42.99820000     -32.84020000     -72.23140000
S      -43.70460000     -33.17860000     -68.13390000
S      -42.51750000     -31.93270000     -70.78390000
H      -42.76080000     -32.44910000     -73.23190000
