40
Properties=species:S:1:pos:R:3 #=T CELL(abcABC):=T 1.889726e+02=T 90.00000=T Traj:=T positionsangstrom=T Step:=T 0=T Bead:=T pbc="F F F"
C      -44.86950000     -31.33710000     -74.30230000
C      -46.14930000     -31.17560000     -73.91830000
C      -46.56630000     -30.47270000     -72.75320000
C      -45.53420000     -30.02540000     -71.90260000
C      -44.18610000     -30.28560000     -72.26350000
C      -43.85270000     -30.95960000     -73.43210000
H      -44.60070000     -31.74190000     -75.33600000
H      -47.57540000     -30.33500000     -72.62540000
H      -43.43710000     -29.97970000     -71.52380000
H      -42.78650000     -31.15510000     -73.68640000
C      -45.85880000     -29.50050000     -70.53110000
H      -46.64480000     -28.84260000     -70.47780000
H      -44.99550000     -29.02760000     -70.03100000
C      -47.29560000     -31.73870000     -74.68690000
H      -48.09370000     -30.98680000     -74.92640000
H      -46.95470000     -32.07750000     -75.66210000
S      -46.36830000     -30.74650000     -69.23710000
S      -48.21240000     -33.12030000     -73.86320000
C      -45.02950000     -32.07590000     -68.87310000
H      -44.41730000     -32.04810000     -69.78520000
H      -44.31260000     -31.79720000     -68.10190000
C      -46.89160000     -34.18560000     -73.26030000
H      -46.18270000     -34.40540000     -73.95820000
H      -47.36010000     -35.21350000     -73.18790000
C      -46.08730000     -33.88630000     -71.99510000
H      -45.37210000     -33.11980000     -72.17660000
H      -46.82920000     -33.59200000     -71.21540000
C      -45.66620000     -33.44490000     -68.60970000
H      -46.52300000     -33.64220000     -69.19880000
H      -46.00130000     -33.37580000     -67.52620000
C      -44.69920000     -34.57370000     -68.89010000
C      -43.80540000     -35.11890000     -68.01600000
C      -44.72840000     -35.28060000     -70.15610000
H      -43.55530000     -34.67400000     -67.02090000
C      -43.89240000     -36.48110000     -70.09990000
C      -45.32170000     -35.08070000     -71.45100000
C      -44.74650000     -35.93360000     -72.39370000
S      -42.96310000     -36.58460000     -68.63720000
S      -43.65310000     -37.15480000     -71.69810000
H      -45.04280000     -36.05150000     -73.44570000
