40
Properties=species:S:1:pos:R:3 #=T CELL(abcABC):=T 1.889726e+02=T 90.00000=T Traj:=T positionsangstrom=T Step:=T 0=T Bead:=T pbc="F F F"
C      -46.09290000     -31.09320000     -71.10070000
C      -46.60520000     -31.67420000     -72.28720000
C      -47.53980000     -32.73710000     -72.21060000
C      -47.91100000     -33.26650000     -70.98550000
C      -47.32130000     -32.73990000     -69.79240000
C      -46.51230000     -31.65740000     -69.84070000
H      -45.33880000     -30.35060000     -71.08630000
H      -47.92280000     -33.09890000     -73.10380000
H      -47.54770000     -33.18990000     -68.85350000
H      -46.11170000     -31.22420000     -68.92160000
C      -48.83480000     -34.42280000     -70.76370000
H      -49.41610000     -34.67440000     -71.71880000
H      -49.55010000     -34.21870000     -69.90940000
C      -46.33240000     -31.04690000     -73.60830000
H      -47.17050000     -30.98170000     -74.33390000
H      -46.11690000     -30.02240000     -73.32480000
S      -47.83950000     -35.90130000     -70.39000000
S      -44.86180000     -31.75210000     -74.58480000
C      -46.51900000     -36.15410000     -71.73630000
H      -46.75510000     -37.10200000     -72.18350000
H      -46.65540000     -35.40340000     -72.40760000
C      -44.99610000     -33.61990000     -74.37640000
H      -44.95860000     -34.07350000     -75.36180000
H      -45.98110000     -33.80180000     -73.87760000
C      -43.75060000     -34.12730000     -73.57620000
H      -43.97130000     -35.17030000     -73.31620000
H      -42.83490000     -33.99370000     -74.17480000
C      -45.11600000     -36.24970000     -71.21000000
H      -44.45930000     -36.53850000     -72.11990000
H      -45.04970000     -37.06330000     -70.55730000
C      -44.55790000     -35.09510000     -70.45820000
C      -44.58880000     -35.04090000     -69.09280000
C      -43.87710000     -33.89170000     -70.93790000
H      -44.97330000     -35.76630000     -68.44460000
C      -43.50360000     -33.02430000     -69.92770000
C      -43.48000000     -33.43080000     -72.23600000
C      -42.75350000     -32.25910000     -72.12870000
S      -43.90870000     -33.64340000     -68.28390000
S      -42.46600000     -31.74820000     -70.43770000
H      -42.43350000     -31.64170000     -72.97880000
