40
Properties=species:S:1:pos:R:3 #=T CELL(abcABC):=T 1.889726e+02=T 90.00000=T Traj:=T positionsangstrom=T Step:=T 0=T Bead:=T pbc="F F F"
C      -45.62810000     -31.06680000     -67.68720000
C      -46.02630000     -32.39350000     -68.03310000
C      -47.01760000     -32.63860000     -68.95140000
C      -47.64380000     -31.59190000     -69.61990000
C      -47.36080000     -30.30390000     -69.19940000
C      -46.27140000     -30.00460000     -68.37390000
H      -44.86850000     -30.98870000     -66.91700000
H      -47.18230000     -33.64680000     -69.39390000
H      -47.85310000     -29.40830000     -69.69330000
H      -46.10130000     -29.01940000     -67.92670000
C      -48.63320000     -31.77060000     -70.72960000
H      -49.01730000     -30.82420000     -71.05660000
H      -49.46920000     -32.28040000     -70.15250000
C      -45.29410000     -33.61870000     -67.52410000
H      -45.28280000     -33.65030000     -66.41980000
H      -45.93900000     -34.46930000     -67.97600000
S      -48.01120000     -32.62910000     -72.19360000
S      -43.50140000     -33.74650000     -67.93590000
C      -48.00730000     -34.37200000     -71.67070000
H      -48.42360000     -34.36800000     -70.70930000
H      -48.73190000     -34.95950000     -72.33180000
C      -43.49480000     -33.55900000     -69.78970000
H      -42.66980000     -32.86710000     -69.92690000
H      -44.40100000     -33.11220000     -70.16140000
C      -43.34780000     -34.95410000     -70.55050000
H      -42.50750000     -35.59380000     -70.35270000
H      -44.16420000     -35.59980000     -70.35540000
C      -46.55790000     -35.01380000     -71.71440000
H      -46.53600000     -36.10930000     -71.41390000
H      -46.05960000     -34.54790000     -70.87120000
C      -45.78190000     -34.75430000     -72.97880000
C      -46.42800000     -34.50450000     -74.19390000
C      -44.34850000     -34.54620000     -72.99860000
H      -47.48820000     -34.56020000     -74.39830000
C      -43.83620000     -34.29290000     -74.28100000
C      -43.29200000     -34.64910000     -71.99810000
C      -42.06790000     -34.33110000     -72.53940000
S      -45.14950000     -34.10780000     -75.43900000
S      -42.11670000     -33.99700000     -74.24820000
H      -41.12430000     -34.36270000     -72.01240000
