40
Properties=species:S:1:pos:R:3 #=T CELL(abcABC):=T 1.889726e+02=T 90.00000=T Traj:=T positionsangstrom=T Step:=T 0=T Bead:=T pbc="F F F"
C      -45.34810000     -31.54460000     -67.61370000
C      -45.72560000     -32.88180000     -67.94310000
C      -46.87510000     -32.99320000     -68.66880000
C      -47.69590000     -31.91060000     -69.09250000
C      -47.28720000     -30.61210000     -68.69230000
C      -46.12170000     -30.45580000     -67.93140000
H      -44.50270000     -31.23180000     -67.06340000
H      -47.31910000     -34.03840000     -68.74450000
H      -47.87870000     -29.70590000     -69.04560000
H      -45.73020000     -29.52040000     -67.58370000
C      -48.86930000     -31.92580000     -70.00500000
H      -49.47860000     -30.98840000     -69.99510000
H      -49.61900000     -32.70560000     -69.73190000
C      -45.13260000     -34.12480000     -67.48270000
H      -45.01870000     -34.18260000     -66.39420000
H      -45.79630000     -34.93560000     -67.79140000
S      -48.42570000     -32.10630000     -71.77680000
S      -43.28570000     -34.32450000     -67.94210000
C      -48.11020000     -33.86970000     -72.02580000
H      -48.53600000     -34.46160000     -71.29750000
H      -48.51220000     -34.09180000     -72.99500000
C      -43.23070000     -33.70900000     -69.73350000
H      -42.23550000     -33.40190000     -69.90910000
H      -43.98080000     -32.92910000     -69.79450000
C      -43.49570000     -34.72900000     -70.79790000
H      -43.03180000     -35.71370000     -70.57110000
H      -44.54130000     -35.09740000     -70.84770000
C      -46.60250000     -34.22080000     -71.87380000
H      -46.53380000     -35.24830000     -71.61260000
H      -46.20690000     -33.52870000     -71.15090000
C      -45.78580000     -34.22230000     -73.14110000
C      -46.38150000     -33.92500000     -74.32960000
C      -44.30170000     -34.21370000     -73.22210000
H      -47.43290000     -33.82390000     -74.46150000
C      -43.91950000     -34.08790000     -74.56460000
C      -43.20540000     -34.28740000     -72.27490000
C      -42.01300000     -34.26890000     -72.89340000
S      -45.25850000     -33.97940000     -75.71740000
S      -42.17080000     -34.22440000     -74.60780000
H      -41.10840000     -34.43000000     -72.36630000
