40
Properties=species:S:1:pos:R:3 #=T CELL(abcABC):=T 1.889726e+02=T 90.00000=T Traj:=T positionsangstrom=T Step:=T 0=T Bead:=T pbc="F F F"
C      -45.38790000     -31.59370000     -67.47620000
C      -45.88770000     -32.83020000     -67.87820000
C      -46.95750000     -32.86380000     -68.77880000
C      -47.56260000     -31.72870000     -69.26060000
C      -47.08310000     -30.42010000     -68.81060000
C      -45.96050000     -30.39370000     -67.96610000
H      -44.50170000     -31.45620000     -66.83080000
H      -47.35700000     -33.75570000     -69.04620000
H      -47.51420000     -29.50060000     -69.08900000
H      -45.52460000     -29.41700000     -67.75960000
C      -48.77770000     -31.88930000     -70.11310000
H      -49.26800000     -30.90850000     -70.08410000
H      -49.45610000     -32.70190000     -69.69740000
C      -45.01840000     -34.07180000     -67.52460000
H      -45.11370000     -34.33160000     -66.42670000
H      -45.46270000     -34.98780000     -67.96400000
S      -48.46530000     -32.27580000     -71.95110000
S      -43.31120000     -33.88880000     -68.06990000
C      -48.22880000     -34.19160000     -72.07260000
H      -48.87400000     -34.55330000     -71.31780000
H      -48.63370000     -34.54940000     -72.93890000
C      -43.62880000     -33.59010000     -69.84960000
H      -42.80720000     -32.95340000     -70.13880000
H      -44.47090000     -32.87690000     -69.97790000
C      -43.61080000     -34.88160000     -70.72780000
H      -42.80270000     -35.46940000     -70.26340000
H      -44.55590000     -35.48250000     -70.80920000
C      -46.75540000     -34.65340000     -71.93380000
H      -46.68860000     -35.61430000     -71.48110000
H      -46.28280000     -33.96920000     -71.21360000
C      -45.82700000     -34.42660000     -73.16210000
C      -46.30610000     -34.24790000     -74.43940000
C      -44.37650000     -34.25940000     -73.13320000
H      -47.35100000     -34.43630000     -74.68280000
C      -43.88110000     -34.04620000     -74.43140000
C      -43.30680000     -34.43920000     -72.12320000
C      -42.05130000     -34.40420000     -72.65550000
S      -45.07180000     -34.10070000     -75.64870000
S      -42.09550000     -33.97210000     -74.33980000
H      -41.03120000     -34.39630000     -72.13240000
