40
Properties=species:S:1:pos:R:3 #=T CELL(abcABC):=T 1.889726e+02=T 90.00000=T Traj:=T positionsangstrom=T Step:=T 0=T Bead:=T pbc="F F F"
C      -45.40120000     -31.58350000     -67.51690000
C      -45.84670000     -32.88390000     -67.87010000
C      -46.96000000     -32.96660000     -68.63910000
C      -47.60620000     -31.83460000     -69.14560000
C      -47.09770000     -30.53780000     -68.84510000
C      -45.99160000     -30.46240000     -68.00380000
H      -44.63310000     -31.39080000     -66.84830000
H      -47.25600000     -33.88680000     -69.04400000
H      -47.63160000     -29.66940000     -69.22200000
H      -45.60010000     -29.53380000     -67.69300000
C      -48.86160000     -31.96350000     -70.00060000
H      -49.60970000     -31.21250000     -69.87500000
H      -49.35560000     -32.90460000     -69.71640000
C      -45.04260000     -34.11240000     -67.33940000
H      -44.80680000     -34.09780000     -66.31360000
H      -45.58180000     -35.01230000     -67.69040000
S      -48.51830000     -32.11540000     -71.82400000
S      -43.30550000     -34.11240000     -68.01580000
C      -48.13750000     -33.97200000     -72.00200000
H      -48.80100000     -34.42750000     -71.13800000
H      -48.64810000     -34.31280000     -72.96880000
C      -43.40660000     -33.58650000     -69.76710000
H      -42.48220000     -32.92970000     -70.00430000
H      -44.27330000     -32.93150000     -69.85900000
C      -43.37760000     -34.74950000     -70.73600000
H      -42.61960000     -35.39970000     -70.40630000
H      -44.37800000     -35.23410000     -70.66910000
C      -46.70730000     -34.40320000     -71.97540000
H      -46.68420000     -35.42210000     -71.47750000
H      -46.18300000     -33.77420000     -71.20950000
C      -45.83620000     -34.39480000     -73.21790000
C      -46.32050000     -34.12160000     -74.48070000
C      -44.39050000     -34.31960000     -73.18980000
H      -47.35340000     -34.05420000     -74.67690000
C      -43.91340000     -34.11860000     -74.50540000
C      -43.31530000     -34.40130000     -72.20470000
C      -42.08380000     -34.35570000     -72.75180000
S      -45.06820000     -34.07300000     -75.77070000
S      -42.18840000     -34.01600000     -74.48130000
H      -41.16050000     -34.59290000     -72.15650000
