40
Properties=species:S:1:pos:R:3 #=T CELL(abcABC):=T 1.889726e+02=T 90.00000=T Traj:=T positionsangstrom=T Step:=T 0=T Bead:=T pbc="F F F"
C      -46.34280000     -32.42630000     -67.85770000
C      -45.46680000     -32.47670000     -68.91920000
C      -45.13680000     -33.70960000     -69.53250000
C      -45.72770000     -34.86470000     -69.06600000
C      -46.60240000     -34.81520000     -67.95670000
C      -46.94660000     -33.61920000     -67.32220000
H      -46.75370000     -31.48770000     -67.48730000
H      -44.38410000     -33.84680000     -70.29130000
H      -47.17000000     -35.72820000     -67.66070000
H      -47.54660000     -33.67940000     -66.46620000
C      -45.52440000     -36.17830000     -69.82810000
H      -45.68660000     -37.10230000     -69.23680000
H      -44.48800000     -36.16330000     -70.19860000
C      -44.94350000     -31.11010000     -69.49870000
H      -44.54020000     -30.58100000     -68.72530000
H      -44.20880000     -31.36030000     -70.32790000
S      -46.93470000     -36.51150000     -71.07380000
S      -46.33480000     -30.10860000     -70.22850000
C      -47.55660000     -34.97940000     -71.86330000
H      -48.59340000     -35.28410000     -72.01260000
H      -47.46250000     -34.20420000     -71.08190000
C      -47.02050000     -31.17320000     -71.60210000
H      -48.02710000     -30.75480000     -71.76030000
H      -47.12110000     -32.17420000     -71.13720000
C      -46.23620000     -31.05150000     -72.90120000
H      -46.75360000     -31.52910000     -73.74480000
H      -46.14190000     -29.98310000     -73.18280000
C      -46.93830000     -34.43920000     -73.23690000
H      -47.38320000     -33.52360000     -73.66130000
H      -47.26120000     -35.26990000     -73.89570000
C      -45.47070000     -34.36420000     -73.10550000
C      -44.71010000     -35.50500000     -73.36180000
C      -44.66400000     -33.14600000     -72.94500000
H      -45.03920000     -36.49820000     -73.48510000
C      -43.31980000     -33.46940000     -73.01860000
C      -44.89420000     -31.72540000     -72.80560000
C      -43.69250000     -31.03760000     -72.80220000
S      -43.01910000     -35.18140000     -73.19080000
S      -42.29250000     -32.07170000     -73.05610000
H      -43.69160000     -29.95790000     -72.77010000
