40
Properties=species:S:1:pos:R:3 #=T CELL(abcABC):=T 1.889726e+02=T 90.00000=T Traj:=T positionsangstrom=T Step:=T 0=T Bead:=T pbc="F F F"
C      -44.89210000     -32.23220000     -68.02860000
C      -45.45770000     -33.52770000     -68.01910000
C      -46.83220000     -33.75100000     -68.36820000
C      -47.59120000     -32.69610000     -68.92640000
C      -47.03390000     -31.41350000     -69.00270000
C      -45.68590000     -31.19480000     -68.54920000
H      -43.78120000     -32.15390000     -67.93240000
H      -47.22860000     -34.75580000     -68.26430000
H      -47.66450000     -30.59330000     -69.38390000
H      -45.27740000     -30.09090000     -68.51600000
C      -49.05170000     -32.99270000     -69.39170000
H      -49.80200000     -32.42640000     -68.83330000
H      -49.27080000     -34.05780000     -69.23240000
C      -44.70920000     -34.76870000     -67.51130000
H      -44.33340000     -34.63640000     -66.51910000
H      -45.39030000     -35.64500000     -67.52210000
S      -48.95020000     -32.62260000     -71.27030000
S      -43.18310000     -35.22110000     -68.49360000
C      -48.09670000     -34.11230000     -71.89990000
H      -48.39590000     -34.93420000     -71.28410000
H      -48.37100000     -34.18830000     -72.97030000
C      -43.38920000     -34.20170000     -70.04050000
H      -42.68140000     -33.35120000     -70.03160000
H      -44.33640000     -33.65110000     -70.01270000
C      -43.30790000     -35.14740000     -71.29100000
H      -42.36250000     -35.68610000     -71.23530000
H      -44.15940000     -35.88650000     -71.23440000
C      -46.51230000     -34.20770000     -71.83280000
H      -46.27160000     -35.24790000     -72.05460000
H      -46.29950000     -33.98990000     -70.81210000
C      -45.76130000     -33.36050000     -72.81220000
C      -46.41800000     -32.60650000     -73.77980000
C      -44.36280000     -33.69570000     -73.23080000
H      -47.42070000     -32.33490000     -73.92370000
C      -44.02400000     -32.96800000     -74.42570000
C      -43.30410000     -34.35760000     -72.59200000
C      -42.12240000     -34.15020000     -73.28560000
S      -45.33380000     -32.00990000     -75.09000000
S      -42.35680000     -33.24940000     -74.88150000
H      -41.13480000     -34.58760000     -73.05370000
