40
Properties=species:S:1:pos:R:3 #=T CELL(abcABC):=T 1.889726e+02=T 90.00000=T Traj:=T positionsangstrom=T Step:=T 0=T Bead:=T pbc="F F F"
C      -46.28630000     -30.76730000     -71.62320000
C      -47.00420000     -31.59370000     -72.53000000
C      -47.53380000     -32.82740000     -72.15700000
C      -47.51740000     -33.15240000     -70.82430000
C      -46.78520000     -32.34000000     -69.89340000
C      -46.15410000     -31.19520000     -70.26290000
H      -45.71530000     -29.86110000     -71.90980000
H      -48.12050000     -33.48310000     -72.84780000
H      -46.75490000     -32.71920000     -68.83270000
H      -45.65670000     -30.55040000     -69.60050000
C      -48.45370000     -34.21860000     -70.34740000
H      -49.23350000     -34.51870000     -71.03860000
H      -48.82550000     -34.04550000     -69.37520000
C      -46.96720000     -31.26020000     -73.98520000
H      -47.67470000     -31.91200000     -74.57710000
H      -47.15450000     -30.18140000     -74.11110000
S      -47.50000000     -35.81830000     -70.08040000
S      -45.21850000     -31.68000000     -74.51990000
C      -46.52620000     -36.09620000     -71.66950000
H      -47.07560000     -37.03360000     -72.06210000
H      -46.76780000     -35.17010000     -72.25480000
C      -45.09520000     -33.44490000     -74.28530000
H      -45.05360000     -33.88720000     -75.26460000
H      -46.00520000     -33.85000000     -73.80650000
C      -43.82380000     -33.88790000     -73.50240000
H      -43.78900000     -35.02690000     -73.35250000
H      -42.99930000     -33.62920000     -74.20390000
C      -45.03550000     -36.29850000     -71.53860000
H      -44.54070000     -36.33320000     -72.48260000
H      -44.89620000     -37.31510000     -71.07340000
C      -44.50430000     -35.25370000     -70.57930000
C      -44.42480000     -35.51640000     -69.19920000
C      -43.88080000     -34.02080000     -70.95690000
H      -44.91800000     -36.37570000     -68.68430000
C      -43.45370000     -33.32520000     -69.87720000
C      -43.54430000     -33.33020000     -72.15180000
C      -42.77940000     -32.16540000     -71.97760000
S      -43.76260000     -34.11330000     -68.34420000
S      -42.77730000     -31.77980000     -70.29660000
H      -42.49250000     -31.37540000     -72.67010000
