40
Properties=species:S:1:pos:R:3 #=T CELL(abcABC):=T 1.889726e+02=T 90.00000=T Traj:=T positionsangstrom=T Step:=T 0=T Bead:=T pbc="F F F"
C      -44.41020000     -33.31690000     -67.72070000
C      -45.04020000     -34.46090000     -68.23500000
C      -46.32640000     -34.39330000     -68.68910000
C      -47.10030000     -33.21550000     -68.54850000
C      -46.55630000     -32.12600000     -67.86140000
C      -45.17350000     -32.15950000     -67.48610000
H      -43.37860000     -33.31670000     -67.29960000
H      -46.85390000     -35.34550000     -68.93590000
H      -47.15820000     -31.25340000     -67.67300000
H      -44.86320000     -31.30010000     -66.93940000
C      -48.56610000     -33.07290000     -69.02960000
H      -49.16210000     -32.33790000     -68.46640000
H      -49.04550000     -34.06960000     -69.06080000
C      -44.40850000     -35.84490000     -68.20950000
H      -44.11500000     -36.03190000     -67.20440000
H      -45.14350000     -36.54560000     -68.60990000
S      -48.70890000     -32.42660000     -70.76490000
S      -42.96810000     -35.89740000     -69.33700000
C      -48.35590000     -33.90940000     -71.78060000
H      -48.71960000     -34.78800000     -71.26850000
H      -48.95430000     -33.82650000     -72.74350000
C      -43.24620000     -34.52070000     -70.65430000
H      -42.28950000     -34.03600000     -70.78040000
H      -44.00090000     -33.80050000     -70.43000000
C      -43.66290000     -35.14480000     -71.95230000
H      -43.04230000     -35.99360000     -72.17900000
H      -44.65590000     -35.46500000     -71.92320000
C      -46.88420000     -34.10070000     -72.18710000
H      -46.80910000     -35.11050000     -72.59780000
H      -46.24380000     -34.07880000     -71.27380000
C      -46.20350000     -33.17930000     -73.12340000
C      -46.87710000     -32.22250000     -73.87980000
C      -44.76570000     -33.22390000     -73.37390000
H      -47.96280000     -32.00610000     -74.01580000
C      -44.40230000     -32.20800000     -74.33600000
C      -43.60420000     -34.08800000     -73.04150000
C      -42.43510000     -33.52810000     -73.54510000
S      -45.69940000     -31.26770000     -74.82130000
S      -42.65670000     -32.10460000     -74.50600000
H      -41.49270000     -33.97460000     -73.21740000
