40
Properties=species:S:1:pos:R:3 #=T CELL(abcABC):=T 1.889726e+02=T 90.00000=T Traj:=T positionsangstrom=T Step:=T 0=T Bead:=T pbc="F F F"
C      -43.15090000     -33.66610000     -74.45930000
C      -43.75270000     -32.44850000     -74.16810000
C      -43.17040000     -31.67740000     -73.17640000
C      -42.13620000     -32.25010000     -72.40970000
C      -41.52660000     -33.42610000     -72.72740000
C      -42.06880000     -34.18730000     -73.80750000
H      -43.54480000     -34.26000000     -75.27610000
H      -43.50700000     -30.68920000     -72.88220000
H      -40.64360000     -33.79730000     -72.13200000
H      -41.75970000     -35.20980000     -74.14370000
C      -41.73260000     -31.46880000     -71.24220000
H      -41.99020000     -30.37720000     -71.35860000
H      -40.62950000     -31.53260000     -71.00070000
C      -45.03420000     -31.80000000     -74.79010000
H      -45.27650000     -30.93950000     -74.17250000
H      -44.72150000     -31.48210000     -75.81030000
S      -42.33270000     -31.94760000     -69.52040000
S      -46.62540000     -32.84100000     -74.97800000
C      -44.07560000     -32.34950000     -69.87120000
H      -44.63840000     -32.34240000     -69.01550000
H      -44.59910000     -31.49080000     -70.46660000
C      -46.82480000     -33.45910000     -73.22290000
H      -45.93850000     -34.04510000     -72.95250000
H      -47.83500000     -33.91520000     -73.22850000
C      -47.07340000     -32.47250000     -72.02750000
H      -46.17080000     -31.94830000     -71.68770000
H      -47.84100000     -31.69200000     -72.32040000
C      -44.25500000     -33.74040000     -70.50940000
H      -43.35550000     -34.34370000     -70.44310000
H      -44.41070000     -33.53630000     -71.57270000
C      -45.44440000     -34.42420000     -69.83320000
C      -45.22710000     -35.25470000     -68.78340000
C      -46.85300000     -34.12450000     -70.02480000
H      -44.22890000     -35.53360000     -68.48140000
C      -47.65530000     -34.75180000     -69.06010000
C      -47.66060000     -33.26880000     -70.84300000
C      -49.00260000     -33.28820000     -70.61060000
S      -46.70430000     -35.78260000     -68.02510000
S      -49.35320000     -34.35610000     -69.14890000
H      -49.83330000     -32.68200000     -70.99310000
