40
Properties=species:S:1:pos:R:3 #=T CELL(abcABC):=T 1.889726e+02=T 90.00000=T Traj:=T positionsangstrom=T Step:=T 0=T Bead:=T pbc="F F F"
C      -48.32130000     -32.22690000     -73.44540000
C      -48.42880000     -31.65890000     -72.17280000
C      -47.44090000     -30.74170000     -71.76790000
C      -46.32160000     -30.39650000     -72.55150000
C      -46.23300000     -31.01550000     -73.77990000
C      -47.19740000     -31.90690000     -74.20390000
H      -49.07390000     -32.89340000     -73.85370000
H      -47.64890000     -30.25450000     -70.76010000
H      -45.46610000     -30.80580000     -74.45800000
H      -47.17280000     -32.22640000     -75.23790000
C      -45.31880000     -29.32580000     -72.05000000
H      -45.59260000     -28.41060000     -71.56720000
H      -44.68970000     -28.98910000     -72.84850000
C      -49.39280000     -32.21330000     -71.13440000
H      -50.03890000     -31.39780000     -70.70600000
H      -50.09760000     -32.97310000     -71.59710000
S      -44.11970000     -29.99750000     -70.76900000
S      -48.66960000     -32.99850000     -69.70140000
C      -43.45050000     -31.57390000     -71.51950000
H      -44.24110000     -32.09950000     -72.15780000
H      -42.56670000     -31.39230000     -72.08990000
C      -47.65900000     -34.34240000     -70.39050000
H      -47.86440000     -34.39830000     -71.45160000
H      -47.95900000     -35.34360000     -69.96210000
C      -46.15450000     -34.12650000     -70.13240000
H      -45.81960000     -33.21180000     -70.69370000
H      -46.17960000     -33.85360000     -69.13900000
C      -43.17900000     -32.49040000     -70.33610000
H      -44.09800000     -32.40710000     -69.74650000
H      -42.29770000     -32.09550000     -69.85160000
C      -42.84410000     -33.93840000     -70.75970000
C      -41.59880000     -34.40100000     -71.05680000
C      -43.83260000     -35.09540000     -70.81620000
H      -40.74790000     -33.79250000     -71.06020000
C      -43.19140000     -36.26600000     -71.17000000
C      -45.28770000     -35.28730000     -70.60090000
C      -45.62180000     -36.61520000     -70.73410000
S      -41.50380000     -36.13870000     -71.36360000
S      -44.31200000     -37.64720000     -71.26340000
H      -46.59160000     -37.13360000     -70.51630000
