40
Properties=species:S:1:pos:R:3 #=T CELL(abcABC):=T 1.889726e+02=T 90.00000=T Traj:=T positionsangstrom=T Step:=T 0=T Bead:=T pbc="F F F"
C      -43.25880000     -33.28590000     -74.66670000
C      -43.91570000     -32.17700000     -74.03620000
C      -43.30250000     -31.56720000     -72.92480000
C      -42.03810000     -32.00930000     -72.43520000
C      -41.51910000     -33.17280000     -73.06430000
C      -42.05780000     -33.75960000     -74.19930000
H      -43.80910000     -33.64000000     -75.55120000
H      -43.61390000     -30.56620000     -72.56500000
H      -40.59020000     -33.57410000     -72.75020000
H      -41.52750000     -34.63630000     -74.62540000
C      -41.32320000     -31.48650000     -71.25130000
H      -41.43190000     -30.42140000     -71.03880000
H      -40.27590000     -31.81540000     -71.45310000
C      -45.24750000     -31.63720000     -74.54470000
H      -45.64480000     -30.87700000     -73.79380000
H      -45.09030000     -31.21310000     -75.51370000
S      -41.88870000     -32.46000000     -69.83690000
S      -46.50210000     -33.00010000     -74.77660000
C      -43.70330000     -32.69930000     -69.73220000
H      -43.92530000     -32.88180000     -68.72320000
H      -44.15370000     -31.73580000     -69.94780000
C      -46.96050000     -33.67230000     -73.12320000
H      -46.20020000     -34.33470000     -72.74100000
H      -47.93870000     -34.12300000     -73.24000000
C      -47.14020000     -32.54420000     -72.05560000
H      -46.23850000     -31.96340000     -71.97660000
H      -47.85830000     -31.82260000     -72.36990000
C      -44.33210000     -33.85830000     -70.47810000
H      -43.71180000     -34.76870000     -70.46620000
H      -44.58340000     -33.63480000     -71.51180000
C      -45.52750000     -34.39500000     -69.68230000
C      -45.47340000     -35.45750000     -68.79770000
C      -46.89380000     -33.96580000     -69.86020000
H      -44.67150000     -36.06060000     -68.42730000
C      -47.79380000     -34.70220000     -69.09890000
C      -47.65980000     -33.10560000     -70.76430000
C      -48.98830000     -32.93180000     -70.39680000
S      -47.00900000     -35.94960000     -68.09800000
S      -49.42680000     -34.10070000     -69.13760000
H      -49.81260000     -32.62720000     -71.04250000
