40
Properties=species:S:1:pos:R:3 #=T CELL(abcABC):=T 1.889726e+02=T 90.00000=T Traj:=T positionsangstrom=T Step:=T 0=T Bead:=T pbc="F F F"
C      -46.06640000     -32.62550000     -67.62720000
C      -45.42240000     -32.48620000     -68.87670000
C      -45.25190000     -33.61420000     -69.64630000
C      -45.74880000     -34.90780000     -69.14870000
C      -46.35460000     -35.02110000     -67.89160000
C      -46.55470000     -33.83180000     -67.11720000
H      -46.26670000     -31.69580000     -67.08500000
H      -44.90840000     -33.45170000     -70.66590000
H      -46.71830000     -35.98810000     -67.67840000
H      -47.10370000     -33.86500000     -66.15610000
C      -45.57700000     -36.13280000     -69.98230000
H      -45.42220000     -37.01290000     -69.38590000
H      -44.65330000     -36.01630000     -70.62150000
C      -44.96580000     -31.09660000     -69.27230000
H      -44.72140000     -30.52470000     -68.32180000
H      -44.08340000     -31.19460000     -69.86720000
S      -46.96990000     -36.57680000     -71.05930000
S      -46.13780000     -29.95710000     -70.27430000
C      -47.69800000     -34.94820000     -71.62380000
H      -48.72880000     -35.18320000     -71.92510000
H      -47.68050000     -34.19320000     -70.85610000
C      -46.96020000     -31.07500000     -71.41000000
H      -48.02790000     -30.73860000     -71.60070000
H      -46.97120000     -32.09240000     -70.93140000
C      -46.27830000     -30.99880000     -72.77920000
H      -46.98060000     -31.11940000     -73.63250000
H      -45.98900000     -29.93170000     -73.03400000
C      -47.03220000     -34.36650000     -72.88550000
H      -47.40230000     -33.34610000     -72.74620000
H      -47.40860000     -34.89490000     -73.72910000
C      -45.56830000     -34.36660000     -72.99550000
C      -44.88950000     -35.51940000     -73.19730000
C      -44.69870000     -33.18210000     -73.06060000
H      -45.33190000     -36.50200000     -73.35310000
C      -43.37090000     -33.46770000     -73.23810000
C      -44.95150000     -31.76950000     -72.93840000
C      -43.74830000     -31.00910000     -72.91450000
S      -43.13300000     -35.21720000     -73.40290000
S      -42.37010000     -32.04460000     -73.28090000
H      -43.57810000     -29.93820000     -72.77470000
