40
Properties=species:S:1:pos:R:3 #=T CELL(abcABC):=T 1.889726e+02=T 90.00000=T Traj:=T positionsangstrom=T Step:=T 0=T Bead:=T pbc="F F F"
C      -44.49330000     -34.74810000     -67.62570000
C      -45.23880000     -35.47190000     -68.53930000
C      -46.48780000     -35.02340000     -68.83090000
C      -46.97960000     -33.78990000     -68.40070000
C      -46.23800000     -33.04660000     -67.50720000
C      -45.01560000     -33.54990000     -67.10630000
H      -43.54480000     -35.09690000     -67.33800000
H      -47.05980000     -35.67690000     -69.57910000
H      -46.52460000     -32.03720000     -67.23130000
H      -44.37080000     -33.16310000     -66.34380000
C      -48.43430000     -33.40750000     -68.70700000
H      -48.86180000     -32.86090000     -67.84320000
H      -49.09650000     -34.27470000     -68.71140000
C      -44.71410000     -36.75210000     -69.15170000
H      -44.31420000     -37.50340000     -68.52420000
H      -45.52390000     -37.09830000     -69.81790000
S      -48.69200000     -32.34260000     -70.22340000
S      -43.15570000     -36.37980000     -70.12640000
C      -48.20020000     -33.50860000     -71.57920000
H      -48.57160000     -34.51900000     -71.47300000
H      -48.62230000     -33.14790000     -72.56430000
C      -43.36140000     -34.81850000     -71.07080000
H      -42.46800000     -34.22370000     -70.92670000
H      -44.17200000     -34.25360000     -70.61700000
C      -43.58690000     -34.92380000     -72.56440000
H      -42.70230000     -35.44620000     -73.00800000
H      -44.50930000     -35.46740000     -72.71450000
C      -46.71170000     -33.59110000     -71.95160000
H      -46.57660000     -34.62580000     -72.37100000
H      -46.04790000     -33.64800000     -71.04910000
C      -46.06400000     -32.48900000     -72.74870000
C      -46.58730000     -31.26750000     -72.98920000
C      -44.66020000     -32.53210000     -73.25270000
H      -47.54700000     -30.78660000     -72.75820000
C      -44.37760000     -31.40860000     -74.05970000
C      -43.62900000     -33.58770000     -73.31750000
C      -42.54760000     -33.13380000     -73.99090000
S      -45.69170000     -30.31630000     -74.14620000
S      -42.80340000     -31.64530000     -74.95210000
H      -41.76390000     -33.83800000     -74.24920000
