40
Properties=species:S:1:pos:R:3 #=T CELL(abcABC):=T 1.889726e+02=T 90.00000=T Traj:=T positionsangstrom=T Step:=T 0=T Bead:=T pbc="F F F"
C      -46.00440000     -32.59880000     -67.60170000
C      -45.27890000     -32.53590000     -68.81420000
C      -45.15760000     -33.70370000     -69.57650000
C      -45.62000000     -34.89110000     -69.12670000
C      -46.15900000     -35.01860000     -67.78840000
C      -46.37430000     -33.82900000     -67.04460000
H      -46.20040000     -31.71330000     -67.10230000
H      -44.58450000     -33.61980000     -70.50550000
H      -46.35440000     -36.01900000     -67.45320000
H      -46.87330000     -33.73710000     -66.07220000
C      -45.50750000     -36.07820000     -70.01750000
H      -45.23480000     -36.91300000     -69.43480000
H      -44.81410000     -35.87310000     -70.81700000
C      -44.75570000     -31.24950000     -69.43240000
H      -44.28470000     -30.68300000     -68.62600000
H      -44.05550000     -31.39500000     -70.29330000
S      -47.08750000     -36.41710000     -70.91610000
S      -46.13050000     -30.17620000     -70.03320000
C      -47.56480000     -34.78650000     -71.52360000
H      -48.68080000     -34.75590000     -71.46710000
H      -47.18490000     -34.02270000     -70.81970000
C      -46.93150000     -31.18110000     -71.35340000
H      -47.95280000     -30.79280000     -71.37080000
H      -47.00700000     -32.18650000     -71.04020000
C      -46.30280000     -31.03140000     -72.76590000
H      -47.05440000     -31.34310000     -73.49470000
H      -46.17970000     -29.97000000     -72.87460000
C      -47.13790000     -34.53650000     -72.98330000
H      -47.62410000     -33.71020000     -73.52190000
H      -47.39560000     -35.42050000     -73.64350000
C      -45.67380000     -34.30360000     -73.18940000
C      -44.93070000     -35.42200000     -73.43750000
C      -44.87320000     -33.09620000     -73.17970000
H      -45.35350000     -36.43880000     -73.60070000
C      -43.45980000     -33.46580000     -73.18330000
C      -44.99790000     -31.68160000     -73.01540000
C      -43.79930000     -30.98190000     -73.23720000
S      -43.23730000     -35.17300000     -73.50320000
S      -42.42970000     -32.01240000     -73.28130000
H      -43.67160000     -29.95620000     -73.31700000
