40
Properties=species:S:1:pos:R:3 #=T CELL(abcABC):=T 1.889726e+02=T 90.00000=T Traj:=T positionsangstrom=T Step:=T 0=T Bead:=T pbc="F F F"
C      -48.67110000     -32.57990000     -71.74150000
C      -48.24030000     -31.68760000     -70.69320000
C      -47.29710000     -30.68810000     -71.05890000
C      -46.91980000     -30.54000000     -72.38450000
C      -47.36490000     -31.40090000     -73.42650000
C      -48.25610000     -32.46370000     -73.04100000
H      -49.29870000     -33.45940000     -71.55080000
H      -46.93700000     -29.88150000     -70.44640000
H      -47.08320000     -31.29610000     -74.42150000
H      -48.49270000     -33.31120000     -73.69920000
C      -45.84700000     -29.50080000     -72.72850000
H      -45.98310000     -28.61350000     -72.09660000
H      -45.85820000     -29.35040000     -73.78350000
C      -48.59880000     -31.90640000     -69.26630000
H      -48.77560000     -30.97520000     -68.75460000
H      -49.51980000     -32.49580000     -69.17260000
S      -44.20720000     -30.12930000     -72.19680000
S      -47.26790000     -32.53900000     -68.11400000
C      -44.10870000     -31.91130000     -72.45590000
H      -45.06340000     -32.40480000     -72.39940000
H      -43.73980000     -32.12150000     -73.43490000
C      -46.65960000     -34.13920000     -68.84730000
H      -47.41570000     -34.79670000     -69.22510000
H      -46.06460000     -34.68630000     -68.02010000
C      -45.64240000     -33.88770000     -69.91730000
H      -46.03500000     -33.25200000     -70.74400000
H      -44.92620000     -33.34620000     -69.43770000
C      -43.13000000     -32.54240000     -71.45250000
H      -43.41200000     -32.37110000     -70.42110000
H      -42.09410000     -32.09360000     -71.68960000
C      -42.89050000     -33.99660000     -71.75980000
C      -41.97050000     -34.48250000     -72.64550000
C      -43.78280000     -35.00230000     -71.27520000
H      -41.19080000     -33.83420000     -73.12740000
C      -43.40250000     -36.23140000     -71.79900000
C      -44.93090000     -35.14230000     -70.48480000
C      -45.44040000     -36.41230000     -70.37620000
S      -42.08870000     -36.20650000     -72.89210000
S      -44.40920000     -37.52920000     -71.28900000
H      -46.35430000     -36.76150000     -69.84580000
