40
Properties=species:S:1:pos:R:3 #=T CELL(abcABC):=T 1.889726e+02=T 90.00000=T Traj:=T positionsangstrom=T Step:=T 0=T Bead:=T pbc="F F F"
C      -43.84380000     -36.12720000     -68.89680000
C      -44.79300000     -36.34850000     -69.93350000
C      -46.06000000     -35.78130000     -69.79800000
C      -46.50480000     -35.14350000     -68.60120000
C      -45.58540000     -35.00880000     -67.54440000
C      -44.29660000     -35.47690000     -67.70410000
H      -42.82970000     -36.49620000     -68.94590000
H      -46.86300000     -35.99330000     -70.53910000
H      -45.83580000     -34.66770000     -66.55710000
H      -43.65860000     -35.52620000     -66.83150000
C      -47.88630000     -34.65470000     -68.39390000
H      -48.16740000     -34.74910000     -67.32430000
H      -48.57340000     -35.24000000     -68.99020000
C      -44.42230000     -37.19800000     -71.13040000
H      -44.18140000     -38.21990000     -70.81350000
H      -45.21070000     -37.37900000     -71.94180000
S      -48.21600000     -32.87270000     -68.76980000
S      -42.91880000     -36.57650000     -72.09190000
C      -48.36400000     -32.83870000     -70.64180000
H      -49.11560000     -33.66620000     -70.89320000
H      -48.88100000     -31.85230000     -70.95590000
C      -43.14940000     -34.67350000     -72.13550000
H      -42.21870000     -34.31150000     -72.52820000
H      -43.40500000     -34.27500000     -71.16400000
C      -44.35770000     -34.32150000     -73.07660000
H      -44.42600000     -34.85830000     -74.00450000
H      -45.31010000     -34.62060000     -72.66960000
C      -47.04510000     -33.07090000     -71.40010000
H      -47.39230000     -33.81540000     -72.19610000
H      -46.36660000     -33.63460000     -70.71520000
C      -46.34490000     -31.83610000     -71.97170000
C      -46.81720000     -30.53750000     -71.84780000
C      -45.14990000     -31.87550000     -72.83530000
H      -47.59410000     -30.25730000     -71.25940000
C      -44.80680000     -30.55120000     -73.23200000
C      -44.23410000     -32.80830000     -73.41280000
C      -43.22980000     -32.27910000     -74.19470000
S      -45.95040000     -29.27930000     -72.77080000
S      -43.41530000     -30.50560000     -74.37250000
H      -42.43440000     -32.74570000     -74.69630000
