40
Properties=species:S:1:pos:R:3 #=T CELL(abcABC):=T 1.889726e+02=T 90.00000=T Traj:=T positionsangstrom=T Step:=T 0=T Bead:=T pbc="F F F"
C      -49.30080000     -32.48290000     -70.66430000
C      -48.30310000     -31.72950000     -70.04190000
C      -47.34430000     -31.04050000     -70.79520000
C      -47.43770000     -31.11960000     -72.18030000
C      -48.51510000     -31.72070000     -72.82130000
C      -49.44340000     -32.40090000     -72.04500000
H      -50.04030000     -33.04070000     -70.12900000
H      -46.41050000     -30.73370000     -70.45100000
H      -48.44800000     -31.85400000     -73.93870000
H      -50.24670000     -32.95940000     -72.38360000
C      -46.47000000     -30.38970000     -73.12640000
H      -46.81850000     -29.36070000     -73.16260000
H      -46.50090000     -30.95300000     -74.08730000
C      -48.10860000     -31.71170000     -68.58490000
H      -48.40380000     -30.69940000     -68.18180000
H      -48.84570000     -32.41570000     -68.20730000
S      -44.67120000     -30.21340000     -72.58240000
S      -46.43650000     -32.14670000     -67.97690000
C      -43.99310000     -31.96340000     -73.05110000
H      -44.87510000     -32.65020000     -73.00450000
H      -43.69180000     -32.02210000     -74.09990000
C      -46.08760000     -33.67440000     -68.92520000
H      -47.13570000     -33.96160000     -69.30280000
H      -45.75640000     -34.43010000     -68.28950000
C      -45.12240000     -33.47840000     -70.08620000
H      -45.68530000     -32.82160000     -70.77090000
H      -44.22820000     -32.92340000     -69.82130000
C      -42.86490000     -32.49140000     -72.14810000
H      -42.99310000     -32.30390000     -71.08890000
H      -41.85360000     -32.09280000     -72.40580000
C      -42.85260000     -33.99960000     -72.40120000
C      -41.94910000     -34.65370000     -73.14460000
C      -43.66430000     -34.95970000     -71.66500000
H      -41.17360000     -34.14140000     -73.67820000
C      -43.28200000     -36.23460000     -71.92840000
C      -44.66150000     -34.80010000     -70.71320000
C      -45.11010000     -36.10690000     -70.30700000
S      -42.00430000     -36.45800000     -73.11740000
S      -44.32650000     -37.40100000     -71.07530000
H      -45.96840000     -36.30390000     -69.62880000
