40
Properties=species:S:1:pos:R:3 #=T CELL(abcABC):=T 1.889726e+02=T 90.00000=T Traj:=T positionsangstrom=T Step:=T 0=T Bead:=T pbc="F F F"
C      -49.03580000     -32.54040000     -71.39810000
C      -48.23490000     -31.90170000     -70.44080000
C      -47.19320000     -31.04590000     -70.91140000
C      -46.91500000     -30.98250000     -72.32700000
C      -47.73900000     -31.67090000     -73.25370000
C      -48.84480000     -32.39710000     -72.78320000
H      -49.86770000     -33.14880000     -71.10630000
H      -46.51250000     -30.55960000     -70.24470000
H      -47.59510000     -31.61170000     -74.38930000
H      -49.55550000     -32.90900000     -73.42510000
C      -46.00440000     -29.89150000     -72.76680000
H      -46.37910000     -28.94640000     -72.41430000
H      -45.92290000     -29.79450000     -73.83820000
C      -48.43490000     -32.02660000     -68.92980000
H      -48.75360000     -31.04640000     -68.53140000
H      -49.09350000     -32.87410000     -68.69790000
S      -44.29790000     -30.04260000     -72.19880000
S      -46.82960000     -32.36730000     -67.99230000
C      -43.87500000     -31.76360000     -72.76610000
H      -44.81450000     -32.21950000     -72.92470000
H      -43.33060000     -31.68660000     -73.66910000
C      -46.17400000     -33.94390000     -68.73350000
H      -46.97330000     -34.74300000     -68.78870000
H      -45.36640000     -34.25830000     -68.13530000
C      -45.70750000     -33.73220000     -70.17770000
H      -46.57180000     -33.41780000     -70.77020000
H      -45.00980000     -32.85740000     -70.06640000
C      -42.94910000     -32.52620000     -71.86710000
H      -43.23040000     -32.31720000     -70.79460000
H      -41.98960000     -32.05040000     -72.07280000
C      -42.92570000     -33.96880000     -72.13830000
C      -41.90200000     -34.55270000     -72.80810000
C      -43.86320000     -34.92470000     -71.63100000
H      -41.01920000     -34.12520000     -73.15050000
C      -43.48060000     -36.23770000     -71.91410000
C      -45.05570000     -34.91130000     -70.78140000
C      -45.56520000     -36.15340000     -70.48230000
S      -41.96550000     -36.30750000     -72.82470000
S      -44.59210000     -37.44650000     -71.17060000
H      -46.52540000     -36.31260000     -69.95890000
