40
Properties=species:S:1:pos:R:3 #=T CELL(abcABC):=T 1.889726e+02=T 90.00000=T Traj:=T positionsangstrom=T Step:=T 0=T Bead:=T pbc="F F F"
C      -43.74000000     -31.32740000     -74.03960000
C      -44.03260000     -31.38960000     -72.67540000
C      -43.22070000     -32.16190000     -71.87450000
C      -42.11400000     -32.86850000     -72.40210000
C      -41.75630000     -32.74240000     -73.77550000
C      -42.63910000     -31.99430000     -74.57080000
H      -44.30770000     -30.82700000     -74.78910000
H      -43.30430000     -32.39380000     -70.78400000
H      -40.88710000     -33.27980000     -74.22270000
H      -42.48740000     -32.01400000     -75.59150000
C      -41.30960000     -33.68040000     -71.45540000
H      -41.56160000     -33.29870000     -70.45500000
H      -40.21410000     -33.63430000     -71.67300000
C      -45.36900000     -30.83370000     -72.08480000
H      -45.59990000     -31.30390000     -71.13940000
H      -45.24740000     -29.68590000     -71.88730000
S      -41.86020000     -35.47640000     -71.56310000
S      -46.87360000     -30.76960000     -73.08200000
C      -43.16570000     -35.56230000     -70.16870000
H      -43.22890000     -36.60090000     -69.76530000
H      -43.05550000     -34.84750000     -69.44270000
C      -47.19620000     -32.50370000     -73.67140000
H      -46.81410000     -32.70970000     -74.71270000
H      -48.30700000     -32.61190000     -73.73610000
C      -46.69080000     -33.59220000     -72.77890000
H      -46.81450000     -34.52950000     -73.27820000
H      -45.56870000     -33.43630000     -72.52440000
C      -44.46610000     -35.27450000     -70.86300000
H      -44.68780000     -36.02980000     -71.54360000
H      -44.30330000     -34.36400000     -71.40600000
C      -45.61740000     -34.92980000     -69.93460000
C      -45.50740000     -35.09500000     -68.56580000
C      -46.77810000     -34.20990000     -70.27590000
H      -44.67230000     -35.49950000     -68.01110000
C      -47.59460000     -34.02100000     -69.17330000
C      -47.37800000     -33.67300000     -71.49060000
C      -48.67980000     -33.36810000     -71.26020000
S      -46.87050000     -34.57660000     -67.67740000
S      -49.19720000     -33.34920000     -69.57200000
H      -49.38930000     -32.84790000     -71.94450000
