40
Properties=species:S:1:pos:R:3 #=T CELL(abcABC):=T 1.889726e+02=T 90.00000=T Traj:=T positionsangstrom=T Step:=T 0=T Bead:=T pbc="F F F"
C      -45.90480000     -31.89790000     -66.70360000
C      -45.61190000     -32.88220000     -67.67550000
C      -46.65310000     -33.24130000     -68.60800000
C      -47.89350000     -32.57850000     -68.65840000
C      -48.08670000     -31.53370000     -67.72380000
C      -47.12840000     -31.20750000     -66.78940000
H      -45.19450000     -31.62480000     -66.03060000
H      -46.41690000     -33.98140000     -69.36220000
H      -48.95980000     -30.95220000     -67.67620000
H      -47.39010000     -30.44630000     -66.08960000
C      -48.94220000     -33.07870000     -69.58180000
H      -49.89600000     -32.60510000     -69.28060000
H      -49.00070000     -34.16210000     -69.47950000
C      -44.22090000     -33.41800000     -67.78950000
H      -43.64860000     -32.83600000     -67.19820000
H      -44.14930000     -34.43070000     -67.39650000
S      -48.60760000     -32.55380000     -71.36240000
S      -43.55090000     -33.57160000     -69.55120000
C      -47.20770000     -33.64190000     -71.97430000
H      -46.30790000     -33.53150000     -71.26850000
H      -47.38470000     -34.72530000     -72.10570000
C      -43.33580000     -31.85560000     -70.26650000
H      -42.25050000     -31.56030000     -70.35860000
H      -43.70950000     -31.07510000     -69.61270000
C      -44.01870000     -31.83940000     -71.62680000
H      -45.06560000     -31.92250000     -71.56390000
H      -43.78950000     -30.84230000     -72.06520000
C      -46.83960000     -33.03140000     -73.35710000
H      -46.69990000     -31.95850000     -73.24180000
H      -47.76290000     -33.21420000     -73.97430000
C      -45.72850000     -33.75890000     -74.04210000
C      -45.88090000     -34.69680000     -75.09500000
C      -44.41360000     -33.77010000     -73.43020000
H      -46.84160000     -34.93670000     -75.59120000
C      -43.66030000     -34.72230000     -74.08520000
C      -43.62530000     -32.97160000     -72.53660000
C      -42.37940000     -33.52340000     -72.47720000
S      -44.49200000     -35.66560000     -75.32550000
S      -41.99760000     -34.84820000     -73.66730000
H      -41.63000000     -33.08690000     -71.83180000
