40
Properties=species:S:1:pos:R:3 #=T CELL(abcABC):=T 1.889726e+02=T 90.00000=T Traj:=T positionsangstrom=T Step:=T 0=T Bead:=T pbc="F F F"
C      -45.92250000     -31.52370000     -66.96910000
C      -45.56990000     -32.60800000     -67.83990000
C      -46.49730000     -33.18090000     -68.67840000
C      -47.87350000     -32.78510000     -68.56020000
C      -48.20730000     -31.83980000     -67.59430000
C      -47.24710000     -31.09100000     -66.88740000
H      -45.18190000     -31.04220000     -66.49470000
H      -46.11590000     -33.98590000     -69.29020000
H      -49.22780000     -31.53960000     -67.45300000
H      -47.55650000     -30.24370000     -66.33190000
C      -48.97470000     -33.28640000     -69.51230000
H      -49.98420000     -32.89270000     -69.22550000
H      -48.96370000     -34.34570000     -69.67290000
C      -44.15470000     -33.13950000     -67.77460000
H      -43.43030000     -32.35180000     -67.42230000
H      -43.98210000     -34.02120000     -67.06960000
S      -48.62070000     -32.53800000     -71.20880000
S      -43.52330000     -33.67250000     -69.40500000
C      -47.64230000     -33.83070000     -72.20740000
H      -46.94620000     -34.23270000     -71.53740000
H      -48.25740000     -34.67480000     -72.48730000
C      -43.68040000     -31.98650000     -70.20060000
H      -42.60250000     -31.60880000     -70.32500000
H      -44.25440000     -31.47160000     -69.46220000
C      -44.27750000     -32.04880000     -71.55420000
H      -45.33190000     -32.36720000     -71.40340000
H      -44.43980000     -31.07800000     -72.00450000
C      -46.91010000     -33.11150000     -73.42920000
H      -46.68630000     -32.08380000     -73.30550000
H      -47.64100000     -33.10210000     -74.25580000
C      -45.70550000     -33.91250000     -73.95520000
C      -45.84810000     -34.88080000     -74.98220000
C      -44.33160000     -33.86120000     -73.49190000
H      -46.77890000     -35.02630000     -75.55090000
C      -43.43650000     -34.71650000     -74.19600000
C      -43.64450000     -33.03700000     -72.52650000
C      -42.34200000     -33.43370000     -72.46390000
S      -44.28420000     -35.47620000     -75.50320000
S      -41.85420000     -34.68430000     -73.60760000
H      -41.60210000     -32.91970000     -71.82840000
