40
Properties=species:S:1:pos:R:3 #=T CELL(abcABC):=T 1.889726e+02=T 90.00000=T Traj:=T positionsangstrom=T Step:=T 0=T Bead:=T pbc="F F F"
C      -48.59070000     -33.69160000     -69.87870000
C      -48.00770000     -32.70440000     -69.03840000
C      -47.64110000     -31.45690000     -69.54180000
C      -47.78260000     -31.22060000     -70.92120000
C      -48.28300000     -32.27090000     -71.77600000
C      -48.71520000     -33.45540000     -71.28090000
H      -49.10700000     -34.50970000     -69.33100000
H      -46.98820000     -30.85280000     -68.90820000
H      -48.20290000     -31.99650000     -72.86900000
H      -49.21400000     -34.25410000     -71.80790000
C      -47.36590000     -29.89250000     -71.54460000
H      -47.15760000     -29.13880000     -70.80380000
H      -48.11730000     -29.54420000     -72.27750000
C      -47.48600000     -33.07770000     -67.68220000
H      -47.96790000     -32.35100000     -66.96220000
H      -47.70620000     -34.12500000     -67.43690000
S      -45.73250000     -29.99740000     -72.52980000
S      -45.58410000     -32.70730000     -67.49520000
C      -45.47940000     -31.72480000     -73.02370000
H      -45.90170000     -32.38970000     -72.27160000
H      -45.76320000     -31.90830000     -74.01280000
C      -44.82530000     -34.04150000     -68.63750000
H      -45.49240000     -34.78430000     -69.05850000
H      -44.10590000     -34.66330000     -67.97160000
C      -44.13380000     -33.44700000     -69.89940000
H      -44.99610000     -32.82000000     -70.31070000
H      -43.34690000     -32.65300000     -69.71750000
C      -43.95880000     -31.92170000     -72.94480000
H      -43.71920000     -31.74400000     -71.89330000
H      -43.46460000     -31.16280000     -73.52440000
C      -43.63150000     -33.39950000     -73.32290000
C      -43.49240000     -33.90820000     -74.59090000
C      -43.62060000     -34.46010000     -72.36820000
H      -43.30060000     -33.33780000     -75.49340000
C      -43.50460000     -35.74300000     -72.96740000
C      -43.64790000     -34.53740000     -70.87390000
C      -43.37830000     -35.83700000     -70.47140000
S      -43.27150000     -35.75370000     -74.68220000
S      -43.24470000     -36.99020000     -71.76120000
H      -43.49090000     -36.10930000     -69.43750000
