40
Properties=species:S:1:pos:R:3 #=T CELL(abcABC):=T 1.889726e+02=T 90.00000=T Traj:=T positionsangstrom=T Step:=T 0=T Bead:=T pbc="F F F"
C      -45.41720000     -33.72690000     -68.81990000
C      -46.61030000     -33.26950000     -69.36400000
C      -47.31120000     -34.16300000     -70.26520000
C      -46.69830000     -35.40970000     -70.60310000
C      -45.49660000     -35.79510000     -70.04620000
C      -44.81920000     -34.91420000     -69.15760000
H      -44.88000000     -33.05090000     -68.18450000
H      -48.26440000     -33.88180000     -70.54820000
H      -44.96580000     -36.63440000     -70.41410000
H      -43.84420000     -35.21570000     -68.92220000
C      -47.53440000     -36.40620000     -71.37380000
H      -48.55250000     -36.52690000     -70.98380000
H      -47.06140000     -37.39800000     -71.39570000
C      -47.28280000     -31.99850000     -68.86730000
H      -48.35940000     -31.84790000     -69.22940000
H      -47.44550000     -32.00910000     -67.73170000
S      -47.97040000     -35.96530000     -73.13120000
S      -46.27600000     -30.43470000     -69.26160000
C      -46.50830000     -35.37750000     -74.06320000
H      -45.76750000     -36.18060000     -73.91720000
H      -46.87420000     -35.41410000     -75.04840000
C      -46.66620000     -30.04420000     -71.07440000
H      -46.15930000     -29.05860000     -71.16980000
H      -47.72250000     -29.93100000     -71.22100000
C      -46.20070000     -31.17370000     -71.98530000
H      -46.88340000     -32.01750000     -71.88450000
H      -46.24120000     -30.82210000     -73.06210000
C      -45.99300000     -33.97070000     -73.59250000
H      -46.67900000     -33.45810000     -72.88880000
H      -46.13470000     -33.23500000     -74.44610000
C      -44.59850000     -33.94330000     -73.05080000
C      -43.66200000     -34.96370000     -73.12750000
C      -44.20710000     -32.81310000     -72.25820000
H      -43.79740000     -35.92560000     -73.48360000
C      -42.89480000     -32.96380000     -71.72940000
C      -44.77110000     -31.67200000     -71.72400000
C      -43.85950000     -30.79730000     -71.20610000
S      -42.20550000     -34.47410000     -72.31600000
S      -42.33020000     -31.65330000     -70.83350000
H      -44.12260000     -29.87800000     -70.61570000
