40
Properties=species:S:1:pos:R:3 #=T CELL(abcABC):=T 1.889726e+02=T 90.00000=T Traj:=T positionsangstrom=T Step:=T 0=T Bead:=T pbc="F F F"
C      -45.55730000     -32.07260000     -66.94250000
C      -45.76470000     -33.20870000     -67.81950000
C      -46.93570000     -33.17440000     -68.57440000
C      -47.76480000     -32.04110000     -68.70600000
C      -47.49020000     -30.94490000     -67.92550000
C      -46.41300000     -30.95890000     -67.00900000
H      -44.68540000     -31.98620000     -66.28790000
H      -46.95900000     -33.98550000     -69.31480000
H      -48.12630000     -30.09500000     -68.11690000
H      -46.26160000     -30.07000000     -66.37340000
C      -48.86920000     -32.01170000     -69.67370000
H      -49.71780000     -31.37990000     -69.30020000
H      -49.19030000     -33.03770000     -69.83030000
C      -44.68170000     -34.26030000     -67.87980000
H      -43.85970000     -33.96150000     -67.23550000
H      -45.06610000     -35.30420000     -67.72720000
S      -48.35870000     -31.22120000     -71.27990000
S      -44.02400000     -34.48370000     -69.66020000
C      -47.42060000     -32.65710000     -72.12900000
H      -46.93810000     -33.33660000     -71.32430000
H      -48.11540000     -33.29830000     -72.70390000
C      -43.25980000     -32.81550000     -69.94850000
H      -42.23510000     -32.73440000     -69.57590000
H      -43.89220000     -32.09770000     -69.34550000
C      -43.15770000     -32.51270000     -71.42790000
H      -43.92590000     -31.82520000     -71.76430000
H      -42.23210000     -31.92930000     -71.66590000
C      -46.28610000     -32.23380000     -73.06020000
H      -45.65660000     -31.71170000     -72.38700000
H      -46.68500000     -31.52830000     -73.85940000
C      -45.51410000     -33.37850000     -73.69620000
C      -46.09660000     -34.06080000     -74.74340000
C      -44.27720000     -33.97770000     -73.30270000
H      -47.02700000     -33.82910000     -75.14170000
C      -43.91680000     -35.04610000     -74.17840000
C      -43.22710000     -33.68550000     -72.34360000
C      -42.06910000     -34.33280000     -72.67580000
S      -45.17030000     -35.44490000     -75.28760000
S      -42.29260000     -35.64090000     -73.82290000
H      -41.14610000     -34.24990000     -72.17390000
