40
Properties=species:S:1:pos:R:3 #=T CELL(abcABC):=T 1.889726e+02=T 90.00000=T Traj:=T positionsangstrom=T Step:=T 0=T Bead:=T pbc="F F F"
C      -45.60860000     -31.37340000     -67.46390000
C      -46.13400000     -32.66050000     -67.83770000
C      -47.13550000     -32.75150000     -68.74240000
C      -47.57810000     -31.62220000     -69.49930000
C      -47.09240000     -30.36420000     -69.14300000
C      -46.11650000     -30.28290000     -68.11590000
H      -44.73170000     -31.11810000     -66.76040000
H      -47.41610000     -33.68410000     -69.06680000
H      -47.30840000     -29.51060000     -69.82230000
H      -45.76770000     -29.30650000     -67.86790000
C      -48.66350000     -31.83120000     -70.53580000
H      -49.41940000     -31.12750000     -70.33680000
H      -49.09040000     -32.78990000     -70.34490000
C      -45.47130000     -33.88140000     -67.17680000
H      -44.87950000     -33.47640000     -66.31190000
H      -46.21380000     -34.56460000     -66.75560000
S      -48.27850000     -31.33200000     -72.23510000
S      -44.28710000     -34.86220000     -68.25200000
C      -46.99270000     -32.61190000     -72.65650000
H      -46.68220000     -33.10420000     -71.75900000
H      -47.41470000     -33.39640000     -73.32240000
C      -43.62450000     -33.48820000     -69.30770000
H      -42.51290000     -33.54620000     -69.37280000
H      -43.79640000     -32.61830000     -68.66500000
C      -44.19830000     -33.35040000     -70.67000000
H      -45.32080000     -33.36040000     -70.46900000
H      -44.11140000     -32.35130000     -71.00560000
C      -45.80040000     -31.99430000     -73.30380000
H      -45.21580000     -31.50860000     -72.53990000
H      -46.02890000     -31.21690000     -74.09120000
C      -44.94840000     -33.12140000     -73.86870000
C      -45.00590000     -33.36550000     -75.19690000
C      -44.14330000     -34.10250000     -73.13390000
H      -45.40750000     -32.70670000     -75.97380000
C      -43.64090000     -35.10100000     -74.01730000
C      -43.81290000     -34.38930000     -71.74330000
C      -43.07310000     -35.53490000     -71.58980000
S      -44.12180000     -34.78890000     -75.69160000
S      -42.95710000     -36.42100000     -73.10670000
H      -42.76110000     -35.88960000     -70.57640000
