40
Properties=species:S:1:pos:R:3 #=T CELL(abcABC):=T 1.889726e+02=T 90.00000=T Traj:=T positionsangstrom=T Step:=T 0=T Bead:=T pbc="F F F"
C      -45.61350000     -31.59890000     -67.24040000
C      -45.97090000     -32.87240000     -67.81430000
C      -46.90290000     -32.95870000     -68.81030000
C      -47.63540000     -31.81450000     -69.19100000
C      -47.14440000     -30.57530000     -68.79960000
C      -46.15050000     -30.45430000     -67.82740000
H      -44.86400000     -31.78450000     -66.49590000
H      -47.26650000     -33.82410000     -69.32960000
H      -47.41810000     -29.72160000     -69.40110000
H      -45.70340000     -29.51840000     -67.58530000
C      -48.81300000     -31.82360000     -70.25440000
H      -49.56480000     -31.29170000     -69.71030000
H      -49.28020000     -32.80370000     -70.52360000
C      -45.15550000     -34.10380000     -67.41890000
H      -44.44460000     -33.79990000     -66.63340000
H      -45.84100000     -34.78230000     -66.97460000
S      -48.15790000     -31.05160000     -71.83120000
S      -44.22980000     -34.85690000     -68.74030000
C      -47.33920000     -32.42850000     -72.72350000
H      -47.26370000     -33.31950000     -72.08110000
H      -47.97280000     -32.73280000     -73.58850000
C      -43.35840000     -33.33510000     -69.42530000
H      -42.31330000     -33.57780000     -69.40640000
H      -43.56010000     -32.46680000     -68.82560000
C      -43.89390000     -33.04030000     -70.84310000
H      -44.97750000     -32.91550000     -70.79480000
H      -43.62480000     -32.08270000     -71.11820000
C      -45.92710000     -32.05630000     -73.25410000
H      -45.29100000     -31.58230000     -72.48600000
H      -46.05550000     -31.36990000     -74.08540000
C      -45.16730000     -33.17170000     -73.91440000
C      -45.46940000     -33.68420000     -75.20510000
C      -44.22440000     -34.04590000     -73.27690000
H      -46.14470000     -33.15800000     -75.91140000
C      -43.82950000     -35.13020000     -74.05890000
C      -43.61430000     -34.02200000     -71.94550000
C      -42.82560000     -35.14930000     -71.72750000
S      -44.57280000     -35.11070000     -75.63460000
S      -42.69170000     -36.19100000     -73.15810000
H      -42.31540000     -35.49340000     -70.81860000
