40
Properties=species:S:1:pos:R:3 #=T CELL(abcABC):=T 1.889726e+02=T 90.00000=T Traj:=T positionsangstrom=T Step:=T 0=T Bead:=T pbc="F F F"
C      -45.35400000     -31.55190000     -67.54610000
C      -45.90110000     -32.77360000     -67.88900000
C      -47.13420000     -32.84190000     -68.68450000
C      -47.70050000     -31.71160000     -69.23640000
C      -47.24930000     -30.47470000     -68.74820000
C      -46.12390000     -30.34630000     -67.93910000
H      -44.50070000     -31.40930000     -66.93920000
H      -47.48160000     -33.85900000     -69.01400000
H      -47.83560000     -29.58660000     -68.94720000
H      -45.89120000     -29.32770000     -67.57230000
C      -48.69000000     -31.85260000     -70.34650000
H      -49.58620000     -31.39990000     -69.94290000
H      -48.94200000     -32.88460000     -70.62720000
C      -45.35100000     -34.00550000     -67.31940000
H      -44.65420000     -33.85750000     -66.47110000
H      -46.20950000     -34.71550000     -67.17900000
S      -48.17210000     -31.03370000     -71.95240000
S      -44.18160000     -34.93750000     -68.60480000
C      -47.33950000     -32.46830000     -72.90590000
H      -47.13750000     -33.22590000     -72.09080000
H      -48.02970000     -32.85740000     -73.63740000
C      -43.40260000     -33.49330000     -69.37310000
H      -42.30060000     -33.68860000     -69.50880000
H      -43.41890000     -32.58310000     -68.73670000
C      -44.01760000     -33.14360000     -70.72580000
H      -45.10440000     -32.97840000     -70.52590000
H      -43.50020000     -32.17690000     -71.05080000
C      -45.97020000     -32.06750000     -73.40670000
H      -45.44070000     -31.63320000     -72.52230000
H      -46.05190000     -31.28900000     -74.14630000
C      -45.20850000     -33.23770000     -73.91400000
C      -45.26670000     -33.57840000     -75.24720000
C      -44.38690000     -34.15220000     -73.17780000
H      -45.79650000     -33.06530000     -76.08970000
C      -43.83720000     -35.17300000     -73.94210000
C      -43.78510000     -34.15290000     -71.86530000
C      -42.89110000     -35.19930000     -71.63130000
S      -44.29400000     -35.01170000     -75.65630000
S      -42.77710000     -36.24860000     -73.08880000
H      -42.40500000     -35.49050000     -70.74130000
