40
Properties=species:S:1:pos:R:3 #=T CELL(abcABC):=T 1.889726e+02=T 90.00000=T Traj:=T positionsangstrom=T Step:=T 0=T Bead:=T pbc="F F F"
C      -48.06740000     -34.07160000     -69.11610000
C      -47.43530000     -32.91990000     -68.69160000
C      -47.37180000     -31.80390000     -69.56400000
C      -48.03190000     -31.82120000     -70.79030000
C      -48.68910000     -32.99300000     -71.19560000
C      -48.72340000     -34.17450000     -70.35350000
H      -48.23140000     -34.83880000     -68.37820000
H      -47.00400000     -30.83060000     -69.18700000
H      -49.32670000     -33.00420000     -72.13010000
H      -49.40750000     -34.94190000     -70.55070000
C      -48.13640000     -30.53980000     -71.60330000
H      -48.56550000     -29.67850000     -71.06480000
H      -48.88610000     -30.59390000     -72.41620000
C      -46.72620000     -32.93480000     -67.35520000
H      -46.98370000     -31.94570000     -66.85710000
H      -47.05500000     -33.67280000     -66.68330000
S      -46.56450000     -29.94980000     -72.35970000
S      -44.89050000     -32.85050000     -67.55630000
C      -45.79980000     -31.58470000     -72.93750000
H      -46.29030000     -32.41340000     -72.49740000
H      -46.00000000     -31.69850000     -73.96650000
C      -44.61760000     -34.23000000     -68.71170000
H      -45.34600000     -35.04530000     -68.41900000
H      -43.51390000     -34.54880000     -68.44360000
C      -44.53590000     -33.72920000     -70.14250000
H      -45.55780000     -33.68150000     -70.60570000
H      -44.13680000     -32.71940000     -70.05650000
C      -44.28840000     -31.71050000     -72.69610000
H      -44.11130000     -31.58590000     -71.62020000
H      -43.69590000     -30.89570000     -73.18380000
C      -43.73940000     -33.04250000     -73.23010000
C      -43.43880000     -33.23510000     -74.56730000
C      -43.68980000     -34.29230000     -72.48670000
H      -43.41020000     -32.41250000     -75.22210000
C      -43.29040000     -35.31390000     -73.30790000
C      -43.93070000     -34.70940000     -71.12700000
C      -43.76430000     -36.04750000     -70.97470000
S      -42.92960000     -34.83970000     -74.92730000
S      -43.06830000     -36.83320000     -72.42790000
H      -43.88000000     -36.70020000     -70.06170000
