40
Properties=species:S:1:pos:R:3 #=T CELL(abcABC):=T 1.889726e+02=T 90.00000=T Traj:=T positionsangstrom=T Step:=T 0=T Bead:=T pbc="F F F"
C      -46.81200000     -35.56180000     -68.86880000
C      -46.40590000     -34.31290000     -68.31110000
C      -47.05060000     -33.17760000     -68.74140000
C      -48.04060000     -33.20870000     -69.70690000
C      -48.51380000     -34.39680000     -70.20700000
C      -47.90900000     -35.58570000     -69.75450000
H      -46.17700000     -36.51290000     -68.74770000
H      -46.78000000     -32.20750000     -68.39430000
H      -49.33770000     -34.41300000     -70.91740000
H      -48.25460000     -36.52020000     -70.15010000
C      -48.82870000     -31.89940000     -70.01890000
H      -49.18900000     -31.36580000     -69.14120000
H      -49.63020000     -32.15910000     -70.70150000
C      -45.29360000     -34.34360000     -67.28820000
H      -45.56100000     -33.81070000     -66.41720000
H      -44.97680000     -35.36780000     -67.14050000
S      -47.66890000     -30.70730000     -70.83280000
S      -43.85390000     -33.29020000     -67.78390000
C      -46.96510000     -31.81240000     -72.15140000
H      -46.79010000     -32.77520000     -71.81670000
H      -47.76620000     -31.78760000     -72.91330000
C      -43.41810000     -34.04490000     -69.40170000
H      -43.95380000     -34.98810000     -69.46560000
H      -42.38560000     -34.22850000     -69.39800000
C      -43.68610000     -33.05850000     -70.55310000
H      -44.70920000     -32.81370000     -70.61850000
H      -43.14870000     -32.08780000     -70.40770000
C      -45.62940000     -31.20400000     -72.66190000
H      -45.01220000     -30.91320000     -71.83170000
H      -45.70620000     -30.24280000     -73.21900000
C      -44.88930000     -32.22050000     -73.53270000
C      -45.16460000     -32.21810000     -74.92990000
C      -44.01690000     -33.27300000     -73.08330000
H      -45.87660000     -31.57490000     -75.40540000
C      -43.58840000     -34.05650000     -74.16980000
C      -43.36830000     -33.65420000     -71.84750000
C      -42.53940000     -34.71950000     -72.04600000
S      -44.33930000     -33.55760000     -75.64570000
S      -42.53080000     -35.32430000     -73.70560000
H      -41.95150000     -35.31220000     -71.28070000
