40
Properties=species:S:1:pos:R:3 #=T CELL(abcABC):=T 1.889726e+02=T 90.00000=T Traj:=T positionsangstrom=T Step:=T 0=T Bead:=T pbc="F F F"
C      -47.65660000     -34.73230000     -68.56260000
C      -46.88230000     -33.56040000     -68.33870000
C      -47.20470000     -32.48840000     -69.10800000
C      -48.24430000     -32.43360000     -70.03010000
C      -49.02510000     -33.58370000     -70.25300000
C      -48.77680000     -34.66780000     -69.37110000
H      -47.69850000     -35.57930000     -67.85160000
H      -46.69870000     -31.53230000     -68.96060000
H      -49.89550000     -33.55250000     -70.91250000
H      -49.39300000     -35.50620000     -69.29190000
C      -48.57980000     -31.19460000     -70.84140000
H      -48.97320000     -30.43060000     -70.13830000
H      -49.38990000     -31.44090000     -71.62010000
C      -45.87350000     -33.48440000     -67.27550000
H      -46.30670000     -32.84980000     -66.56630000
H      -45.69260000     -34.48620000     -66.83580000
S      -47.19340000     -30.38950000     -71.57200000
S      -44.20990000     -32.81980000     -67.67140000
C      -46.37550000     -31.81670000     -72.45480000
H      -46.22360000     -32.56750000     -71.76220000
H      -47.10520000     -32.13550000     -73.24340000
C      -43.47940000     -33.77990000     -69.06040000
H      -43.37240000     -34.79380000     -68.71060000
H      -42.47300000     -33.43720000     -69.12640000
C      -44.30710000     -33.68830000     -70.37340000
H      -45.23100000     -34.16160000     -70.15400000
H      -44.50580000     -32.66430000     -70.63120000
C      -45.00080000     -31.41890000     -72.97370000
H      -44.35670000     -31.10000000     -72.06850000
H      -44.98440000     -30.56900000     -73.71550000
C      -44.36570000     -32.69900000     -73.60820000
C      -44.16240000     -32.70600000     -74.92760000
C      -43.84000000     -33.86940000     -72.92260000
H      -44.48580000     -31.99980000     -75.73670000
C      -43.42780000     -34.76730000     -73.85850000
C      -43.72220000     -34.36760000     -71.56370000
C      -43.14660000     -35.65160000     -71.67400000
S      -43.52280000     -34.23420000     -75.51930000
S      -42.65120000     -36.24860000     -73.22820000
H      -43.11730000     -36.32210000     -70.82660000
