40
Properties=species:S:1:pos:R:3 #=T CELL(abcABC):=T 1.889726e+02=T 90.00000=T Traj:=T positionsangstrom=T Step:=T 0=T Bead:=T pbc="F F F"
C      -47.61790000     -34.78830000     -68.48760000
C      -46.88640000     -33.61470000     -68.31660000
C      -47.27420000     -32.43400000     -68.94900000
C      -48.28610000     -32.44060000     -69.87750000
C      -49.04040000     -33.65480000     -70.10220000
C      -48.72870000     -34.81960000     -69.36600000
H      -47.22750000     -35.77330000     -68.06980000
H      -46.73660000     -31.49990000     -68.85530000
H      -49.92480000     -33.64120000     -70.72560000
H      -49.26030000     -35.73350000     -69.64770000
C      -48.76540000     -31.22920000     -70.64870000
H      -49.29500000     -30.47960000     -70.00410000
H      -49.53150000     -31.40270000     -71.36300000
C      -45.72800000     -33.73640000     -67.36050000
H      -45.98990000     -33.31000000     -66.36760000
H      -45.49320000     -34.80680000     -67.16430000
S      -47.19460000     -30.37760000     -71.46210000
S      -44.19400000     -32.85930000     -67.86440000
C      -46.43160000     -31.85470000     -72.19760000
H      -46.27610000     -32.63840000     -71.52320000
H      -47.10550000     -32.25980000     -72.96800000
C      -43.53620000     -34.00350000     -69.15030000
H      -43.71640000     -35.07000000     -68.79210000
H      -42.50700000     -33.72790000     -69.29900000
C      -44.33470000     -33.64850000     -70.45050000
H      -45.42390000     -33.96350000     -70.45600000
H      -44.29520000     -32.52830000     -70.55160000
C      -45.09770000     -31.50650000     -72.93530000
H      -44.41430000     -31.00900000     -72.24800000
H      -45.22500000     -30.75790000     -73.59080000
C      -44.47280000     -32.68180000     -73.69090000
C      -44.35730000     -32.69530000     -75.03250000
C      -43.76150000     -33.77810000     -73.00680000
H      -44.60640000     -31.88070000     -75.74940000
C      -43.25980000     -34.65940000     -73.94350000
C      -43.70940000     -34.26030000     -71.63110000
C      -43.09250000     -35.49490000     -71.60180000
S      -43.42540000     -34.12810000     -75.58310000
S      -42.64600000     -36.13620000     -73.25370000
H      -42.91400000     -36.06640000     -70.63910000
