40
Properties=species:S:1:pos:R:3 #=T CELL(abcABC):=T 1.889726e+02=T 90.00000=T Traj:=T positionsangstrom=T Step:=T 0=T Bead:=T pbc="F F F"
C      -47.06640000     -35.48740000     -68.68330000
C      -46.54790000     -34.27460000     -68.19180000
C      -47.11900000     -33.08350000     -68.76780000
C      -48.17510000     -33.10680000     -69.64760000
C      -48.75470000     -34.30270000     -70.04560000
C      -48.17830000     -35.49480000     -69.62150000
H      -46.68350000     -36.54670000     -68.31100000
H      -46.64480000     -32.11240000     -68.60120000
H      -49.72570000     -34.31330000     -70.58230000
H      -48.60540000     -36.41050000     -70.03720000
C      -48.70680000     -31.81990000     -70.18600000
H      -49.08980000     -31.28090000     -69.30720000
H      -49.59280000     -31.88950000     -70.84750000
C      -45.46800000     -34.21950000     -67.15020000
H      -45.68770000     -33.76060000     -66.22240000
H      -45.22890000     -35.26730000     -66.76620000
S      -47.58910000     -30.60020000     -70.89580000
S      -43.85570000     -33.31140000     -67.70380000
C      -46.77000000     -31.70300000     -72.15660000
H      -46.65600000     -32.80200000     -71.93460000
H      -47.48860000     -31.73350000     -72.98110000
C      -43.49100000     -34.12660000     -69.29680000
H      -44.10060000     -35.04220000     -69.34580000
H      -42.42230000     -34.43810000     -69.33050000
C      -43.82150000     -33.24980000     -70.55240000
H      -44.96040000     -33.11310000     -70.62830000
H      -43.48420000     -32.25420000     -70.41610000
C      -45.36810000     -31.23210000     -72.66340000
H      -44.78960000     -31.15790000     -71.73480000
H      -45.36680000     -30.23630000     -73.18040000
C      -44.81100000     -32.29880000     -73.58400000
C      -45.06480000     -32.30150000     -74.96000000
C      -44.01530000     -33.39110000     -73.15410000
H      -45.43280000     -31.38540000     -75.52680000
C      -43.55730000     -34.16770000     -74.20990000
C      -43.48420000     -33.83640000     -71.86920000
C      -42.60230000     -34.86300000     -72.07640000
S      -44.20350000     -33.55560000     -75.76920000
S      -42.38800000     -35.32860000     -73.79830000
H      -42.08240000     -35.48500000     -71.33180000
