40
Properties=species:S:1:pos:R:3 #=T CELL(abcABC):=T 1.889726e+02=T 90.00000=T Traj:=T positionsangstrom=T Step:=T 0=T Bead:=T pbc="F F F"
C      -47.53050000     -35.08940000     -68.36170000
C      -46.83190000     -33.89400000     -68.06220000
C      -47.17030000     -32.68420000     -68.60450000
C      -48.21200000     -32.60920000     -69.58330000
C      -48.87800000     -33.78750000     -69.93490000
C      -48.48520000     -35.02750000     -69.35240000
H      -47.19970000     -36.04940000     -68.04400000
H      -46.67560000     -31.70890000     -68.40720000
H      -49.65280000     -33.74700000     -70.70770000
H      -49.03000000     -35.93370000     -69.63890000
C      -48.65480000     -31.36890000     -70.28100000
H      -49.09250000     -30.69400000     -69.56080000
H      -49.50840000     -31.63320000     -70.92830000
C      -45.61050000     -33.95040000     -67.10900000
H      -45.82930000     -33.40810000     -66.23870000
H      -45.46050000     -35.00080000     -66.82450000
S      -47.30130000     -30.47630000     -71.29690000
S      -44.13980000     -33.10560000     -67.76470000
C      -46.88840000     -31.71420000     -72.67710000
H      -47.11940000     -32.68760000     -72.22660000
H      -47.56190000     -31.63620000     -73.44420000
C      -43.59990000     -34.10440000     -69.27440000
H      -43.88160000     -35.05410000     -68.99430000
H      -42.48670000     -33.99090000     -69.33920000
C      -44.34980000     -33.58500000     -70.54650000
H      -45.40650000     -33.87780000     -70.62000000
H      -44.32940000     -32.52350000     -70.62540000
C      -45.39470000     -31.48410000     -73.03790000
H      -44.93420000     -31.26590000     -72.09660000
H      -45.39020000     -30.55330000     -73.68990000
C      -44.66380000     -32.61820000     -73.78100000
C      -44.51370000     -32.52830000     -75.14220000
C      -43.92270000     -33.69600000     -73.14980000
H      -44.80630000     -31.73040000     -75.71780000
C      -43.18400000     -34.42010000     -74.12690000
C      -43.68500000     -34.14180000     -71.80040000
C      -42.92180000     -35.29790000     -71.81520000
S      -43.44710000     -33.79900000     -75.71050000
S      -42.49830000     -35.83140000     -73.42830000
H      -42.52480000     -35.89780000     -71.02040000
