40
Properties=species:S:1:pos:R:3 #=T CELL(abcABC):=T 1.889726e+02=T 90.00000=T Traj:=T positionsangstrom=T Step:=T 0=T Bead:=T pbc="F F F"
C      -46.55010000     -35.61330000     -69.07060000
C      -46.30210000     -34.42950000     -68.29540000
C      -47.07450000     -33.28480000     -68.54580000
C      -48.05340000     -33.29020000     -69.53330000
C      -48.33940000     -34.48580000     -70.23700000
C      -47.64010000     -35.68340000     -69.94800000
H      -46.12590000     -36.51290000     -68.71870000
H      -46.94640000     -32.45550000     -67.93880000
H      -49.07960000     -34.49640000     -71.01230000
H      -47.92350000     -36.65780000     -70.25740000
C      -48.79190000     -32.00200000     -69.78180000
H      -49.08780000     -31.51210000     -68.84970000
H      -49.73610000     -32.22500000     -70.30350000
C      -45.16600000     -34.42820000     -67.29260000
H      -45.55180000     -34.14500000     -66.21360000
H      -44.82860000     -35.47460000     -67.14890000
S      -47.74840000     -30.80380000     -70.68240000
S      -43.86960000     -33.22640000     -67.73370000
C      -46.90690000     -31.78310000     -72.04320000
H      -46.69490000     -32.79850000     -71.65680000
H      -47.72450000     -31.96030000     -72.77370000
C      -43.25670000     -33.78250000     -69.40420000
H      -43.64580000     -34.82510000     -69.59390000
H      -42.14150000     -33.96530000     -69.27890000
C      -43.61570000     -32.87060000     -70.61820000
H      -44.65970000     -32.56380000     -70.60650000
H      -42.91690000     -31.99280000     -70.54340000
C      -45.66110000     -31.12750000     -72.71920000
H      -44.95550000     -30.87970000     -71.92920000
H      -46.04880000     -30.21040000     -73.18020000
C      -45.00820000     -32.20960000     -73.60530000
C      -45.34040000     -32.28830000     -74.97070000
C      -44.01540000     -33.15430000     -73.18810000
H      -46.11580000     -31.79580000     -75.47750000
C      -43.67870000     -33.98220000     -74.25380000
C      -43.44790000     -33.55950000     -71.92030000
C      -42.64910000     -34.64240000     -72.14370000
S      -44.47600000     -33.62210000     -75.73730000
S      -42.56480000     -35.26290000     -73.74010000
H      -41.97370000     -35.02920000     -71.31620000
