40
Properties=species:S:1:pos:R:3 #=T CELL(abcABC):=T 1.889726e+02=T 90.00000=T Traj:=T positionsangstrom=T Step:=T 0=T Bead:=T pbc="F F F"
C      -47.41080000     -31.75050000     -71.70170000
C      -48.05210000     -32.88250000     -71.09340000
C      -47.54520000     -33.32060000     -69.84810000
C      -46.51420000     -32.62300000     -69.08700000
C      -45.91050000     -31.50980000     -69.74900000
C      -46.47630000     -31.03470000     -70.91940000
H      -47.68580000     -31.30990000     -72.68940000
H      -47.93920000     -34.12450000     -69.26820000
H      -45.14450000     -30.98140000     -69.20160000
H      -46.03190000     -30.06740000     -71.37550000
C      -45.95350000     -33.34740000     -67.86310000
H      -46.69940000     -34.02750000     -67.37840000
H      -45.69020000     -32.61520000     -67.10520000
C      -49.03000000     -33.70130000     -71.84030000
H      -49.60160000     -34.32540000     -71.08570000
H      -49.82720000     -32.99160000     -72.17380000
S      -44.44570000     -34.38670000     -68.08540000
S      -48.41490000     -34.53980000     -73.30440000
C      -44.99790000     -35.49500000     -69.44330000
H      -45.18620000     -36.49540000     -69.04930000
H      -45.88180000     -35.14010000     -69.92040000
C      -46.85730000     -35.33380000     -72.54260000
H      -47.10800000     -36.36950000     -72.44120000
H      -46.73500000     -34.99460000     -71.55050000
C      -45.55020000     -35.21790000     -73.30620000
H      -44.87130000     -36.01910000     -73.14330000
H      -45.74730000     -35.28160000     -74.42740000
C      -43.88510000     -35.64360000     -70.47930000
H      -44.25790000     -36.38710000     -71.16720000
H      -42.94540000     -36.05090000     -70.12390000
C      -43.38050000     -34.34390000     -71.04560000
C      -42.36560000     -33.64180000     -70.41970000
C      -43.85830000     -33.61950000     -72.18730000
H      -41.89400000     -33.66910000     -69.44390000
C      -43.25910000     -32.37940000     -72.32730000
C      -44.83360000     -33.89470000     -73.21250000
C      -44.94710000     -32.89790000     -74.14000000
S      -42.11090000     -31.97330000     -71.08780000
S      -43.85210000     -31.56060000     -73.75010000
H      -45.65580000     -32.88140000     -74.93420000
