40
Properties=species:S:1:pos:R:3 #=T CELL(abcABC):=T 1.889726e+02=T 90.00000=T Traj:=T positionsangstrom=T Step:=T 0=T Bead:=T pbc="F F F"
C      -46.25230000     -35.66850000     -69.15250000
C      -46.04540000     -34.56720000     -68.31290000
C      -46.93590000     -33.50340000     -68.45150000
C      -48.05530000     -33.54400000     -69.36870000
C      -48.23080000     -34.67490000     -70.15320000
C      -47.34650000     -35.74830000     -70.03180000
H      -45.55600000     -36.51340000     -69.03770000
H      -46.66550000     -32.57950000     -67.87370000
H      -48.99190000     -34.68290000     -70.92750000
H      -47.34150000     -36.55470000     -70.70340000
C      -48.78800000     -32.20110000     -69.61820000
H      -49.12430000     -31.77260000     -68.67720000
H      -49.71960000     -32.37990000     -70.27210000
C      -44.85510000     -34.37070000     -67.34860000
H      -45.21060000     -33.98460000     -66.40940000
H      -44.19950000     -35.26250000     -67.29770000
S      -47.79960000     -30.92370000     -70.51940000
S      -43.63140000     -33.09230000     -67.79260000
C      -47.28250000     -31.83490000     -72.08130000
H      -47.19220000     -32.89820000     -71.86180000
H      -48.01580000     -31.70320000     -72.90950000
C      -43.09170000     -33.60290000     -69.47500000
H      -43.16960000     -34.74190000     -69.52430000
H      -42.10280000     -33.14850000     -69.64940000
C      -44.03100000     -33.11050000     -70.58070000
H      -45.13730000     -33.15930000     -70.40230000
H      -43.89050000     -31.97070000     -70.55180000
C      -45.92870000     -31.31180000     -72.55420000
H      -45.30410000     -30.94420000     -71.70770000
H      -46.21710000     -30.37860000     -73.00480000
C      -45.22800000     -32.21450000     -73.55690000
C      -45.48990000     -32.22900000     -74.90870000
C      -44.19970000     -33.14480000     -73.18820000
H      -46.11100000     -31.51980000     -75.45250000
C      -43.72000000     -33.83810000     -74.29660000
C      -43.58630000     -33.59880000     -71.94230000
C      -42.75830000     -34.62170000     -72.17740000
S      -44.54800000     -33.37930000     -75.80050000
S      -42.55340000     -35.08250000     -73.89300000
H      -42.32810000     -35.30710000     -71.41460000
