40
Properties=species:S:1:pos:R:3 #=T CELL(abcABC):=T 1.889726e+02=T 90.00000=T Traj:=T positionsangstrom=T Step:=T 0=T Bead:=T pbc="F F F"
C      -46.76040000     -31.94090000     -74.67350000
C      -46.54870000     -32.38720000     -73.39250000
C      -45.43610000     -31.86610000     -72.68760000
C      -44.32090000     -31.20560000     -73.36440000
C      -44.46900000     -31.05570000     -74.74820000
C      -45.69570000     -31.32810000     -75.35840000
H      -47.66910000     -32.22810000     -75.17870000
H      -45.26300000     -32.05500000     -71.63530000
H      -43.74380000     -30.66550000     -75.41310000
H      -45.95560000     -31.18900000     -76.38830000
C      -43.07610000     -30.90010000     -72.62040000
H      -43.26780000     -30.40010000     -71.66380000
H      -42.64940000     -30.13220000     -73.34820000
C      -47.43930000     -33.18200000     -72.55960000
H      -47.15430000     -33.16110000     -71.48310000
H      -48.46620000     -32.82500000     -72.65660000
S      -41.81450000     -32.30010000     -72.57790000
S      -47.53280000     -35.03300000     -72.97250000
C      -41.79180000     -33.14580000     -70.93160000
H      -41.06580000     -33.89870000     -70.95710000
H      -41.52550000     -32.45090000     -70.19260000
C      -45.65570000     -35.73280000     -72.64340000
H      -44.97470000     -34.84680000     -72.75340000
H      -45.53710000     -36.44700000     -73.48330000
C      -45.52160000     -36.40750000     -71.33240000
H      -46.01760000     -37.37230000     -71.46040000
H      -44.41800000     -36.64480000     -71.11130000
C      -43.10740000     -34.01330000     -70.70170000
H      -42.88780000     -35.07540000     -70.44370000
H      -43.63400000     -34.27600000     -71.67270000
C      -44.16530000     -33.57080000     -69.71430000
C      -44.10880000     -32.50040000     -68.86930000
C      -45.38740000     -34.39480000     -69.49410000
H      -43.18420000     -31.85540000     -68.76230000
C      -46.13380000     -33.86890000     -68.46600000
C      -46.08630000     -35.52750000     -70.18640000
C      -47.37490000     -35.69900000     -69.66020000
S      -45.42220000     -32.39670000     -67.79730000
S      -47.69700000     -34.56190000     -68.36700000
H      -47.92420000     -36.55010000     -69.92500000
