40
Properties=species:S:1:pos:R:3 #=T CELL(abcABC):=T 1.889726e+02=T 90.00000=T Traj:=T positionsangstrom=T Step:=T 0=T Bead:=T pbc="F F F"
C      -45.19200000     -32.59360000     -67.55540000
C      -44.67690000     -32.47550000     -68.83810000
C      -44.66590000     -33.61740000     -69.66630000
C      -45.13010000     -34.85750000     -69.29560000
C      -45.62330000     -34.97510000     -67.90190000
C      -45.62740000     -33.86730000     -67.10220000
H      -45.30450000     -31.75150000     -66.86200000
H      -44.25410000     -33.51670000     -70.65230000
H      -45.91570000     -35.98950000     -67.61990000
H      -45.90920000     -33.89010000     -66.04050000
C      -45.25480000     -36.01900000     -70.29050000
H      -44.83030000     -36.91850000     -69.68880000
H      -44.66270000     -35.78520000     -71.16240000
C      -44.35320000     -31.19200000     -69.48470000
H      -43.70060000     -30.60060000     -68.84230000
H      -43.93390000     -31.39660000     -70.42750000
S      -47.00530000     -36.39540000     -70.76740000
S      -45.86940000     -30.12140000     -70.00200000
C      -47.71930000     -34.75210000     -71.43530000
H      -48.84100000     -34.81430000     -71.33820000
H      -47.36020000     -33.92640000     -70.80810000
C      -46.90680000     -31.38590000     -70.76140000
H      -47.87380000     -31.16870000     -70.47200000
H      -46.64070000     -32.35990000     -70.37070000
C      -46.80800000     -31.41360000     -72.28390000
H      -47.41760000     -32.22570000     -72.54410000
H      -47.26520000     -30.50150000     -72.71340000
C      -47.42030000     -34.60640000     -72.99450000
H      -48.06810000     -33.87750000     -73.44940000
H      -47.72050000     -35.66370000     -73.36410000
C      -45.95120000     -34.38230000     -73.23260000
C      -45.21020000     -35.44930000     -73.71500000
C      -45.12560000     -33.19550000     -73.01170000
H      -45.51210000     -36.45480000     -73.86770000
C      -43.78940000     -33.42340000     -73.33060000
C      -45.45740000     -31.82180000     -72.81980000
C      -44.36490000     -30.98080000     -72.94430000
S      -43.56300000     -35.03800000     -73.93410000
S      -42.94420000     -31.92470000     -73.33560000
H      -44.40770000     -29.87870000     -72.75420000
