40
Properties=species:S:1:pos:R:3 #=T CELL(abcABC):=T 1.889726e+02=T 90.00000=T Traj:=T positionsangstrom=T Step:=T 0=T Bead:=T pbc="F F F"
C      -48.66760000     -33.97830000     -68.80560000
C      -47.53630000     -33.12900000     -68.66470000
C      -46.26420000     -33.65760000     -68.43770000
C      -46.01830000     -35.03320000     -68.49920000
C      -47.12100000     -35.84110000     -68.84060000
C      -48.40740000     -35.30980000     -68.96100000
H      -49.65840000     -33.61790000     -68.92620000
H      -45.51430000     -32.93980000     -68.17690000
H      -47.00720000     -36.96780000     -68.97220000
H      -49.24960000     -35.98040000     -69.20450000
C      -44.68790000     -35.62050000     -67.93980000
H      -44.90510000     -36.62240000     -67.39530000
H      -44.19090000     -34.98360000     -67.22690000
C      -47.71660000     -31.56810000     -68.56000000
H      -48.49730000     -31.28380000     -69.21160000
H      -48.00830000     -31.41200000     -67.59940000
S      -43.44700000     -35.92610000     -69.34460000
S      -46.24190000     -30.47540000     -68.92800000
C      -44.09300000     -34.92660000     -70.81680000
H      -44.55920000     -35.60940000     -71.59370000
H      -44.85450000     -34.28040000     -70.42490000
C      -46.07230000     -30.46730000     -70.77830000
H      -45.68000000     -29.47890000     -70.99660000
H      -47.02690000     -30.41750000     -71.18160000
C      -45.29210000     -31.64860000     -71.32380000
H      -44.28160000     -31.73670000     -71.01020000
H      -45.88170000     -32.54410000     -70.85160000
C      -42.91120000     -34.14440000     -71.50450000
H      -41.89370000     -34.70750000     -71.42760000
H      -42.77840000     -33.14550000     -71.01550000
C      -43.37950000     -33.95640000     -72.91830000
C      -42.89130000     -34.82420000     -73.85670000
C      -44.34630000     -32.98620000     -73.38860000
H      -42.12250000     -35.64540000     -73.71460000
C      -44.47240000     -33.00510000     -74.77910000
C      -45.23580000     -31.96680000     -72.82000000
C      -45.86240000     -31.16430000     -73.79460000
S      -43.59920000     -34.39010000     -75.43290000
S      -45.67870000     -31.82440000     -75.40320000
H      -46.46830000     -30.37370000     -73.54740000
