40
Properties=species:S:1:pos:R:3 #=T CELL(abcABC):=T 1.889726e+02=T 90.00000=T Traj:=T positionsangstrom=T Step:=T 0=T Bead:=T pbc="F F F"
C      -47.03050000     -31.49540000     -71.63920000
C      -47.79650000     -32.54500000     -71.14890000
C      -47.48050000     -33.15070000     -69.93930000
C      -46.48420000     -32.54020000     -69.15320000
C      -45.72500000     -31.50690000     -69.62170000
C      -45.96330000     -31.03470000     -70.90650000
H      -47.26530000     -31.11500000     -72.60700000
H      -48.02970000     -34.05010000     -69.60660000
H      -44.93510000     -31.11500000     -69.01240000
H      -45.34610000     -30.20900000     -71.29700000
C      -46.12540000     -33.19060000     -67.80930000
H      -46.96610000     -33.78550000     -67.42840000
H      -45.89180000     -32.51280000     -66.96520000
C      -48.82980000     -33.18880000     -72.00680000
H      -49.59200000     -33.74540000     -71.43640000
H      -49.35990000     -32.35880000     -72.48120000
S      -44.63540000     -34.26210000     -67.89560000
S      -48.20170000     -34.18740000     -73.45290000
C      -44.94130000     -35.25880000     -69.34250000
H      -45.39160000     -36.27840000     -69.15520000
H      -45.63540000     -34.75140000     -70.00770000
C      -47.29790000     -35.46790000     -72.42270000
H      -47.84120000     -36.41800000     -72.67660000
H      -47.46540000     -35.19990000     -71.37280000
C      -45.70760000     -35.70190000     -72.67810000
H      -45.34440000     -36.19330000     -71.80120000
H      -45.62080000     -36.35590000     -73.52410000
C      -43.62380000     -35.49580000     -70.02090000
H      -43.51980000     -36.42700000     -70.59100000
H      -42.84500000     -35.78150000     -69.30410000
C      -43.21440000     -34.28320000     -70.91790000
C      -42.32060000     -33.33120000     -70.50840000
C      -43.87510000     -33.86810000     -72.15520000
H      -41.82480000     -33.50730000     -69.59470000
C      -43.41350000     -32.62430000     -72.53630000
C      -44.93300000     -34.42480000     -73.00530000
C      -45.09640000     -33.54930000     -74.07750000
S      -42.12670000     -31.96330000     -71.49170000
S      -44.23130000     -32.04670000     -73.96630000
H      -45.74990000     -33.71320000     -74.88620000
