40
Properties=species:S:1:pos:R:3 #=T CELL(abcABC):=T 1.889726e+02=T 90.00000=T Traj:=T positionsangstrom=T Step:=T 0=T Bead:=T pbc="F F F"
C      -45.06130000     -36.39940000     -68.62700000
C      -44.96260000     -35.01740000     -68.13180000
C      -45.96980000     -34.14750000     -68.29520000
C      -47.22300000     -34.60970000     -68.75510000
C      -47.38180000     -35.95550000     -69.11670000
C      -46.26810000     -36.80650000     -69.17700000
H      -44.17650000     -37.11530000     -68.77570000
H      -45.82990000     -33.16590000     -67.91630000
H      -48.20190000     -36.34030000     -69.68220000
H      -46.36310000     -37.81270000     -69.65930000
C      -48.41540000     -33.70470000     -68.91540000
H      -49.06910000     -33.56770000     -68.13570000
H      -49.10870000     -34.25840000     -69.76180000
C      -43.79560000     -34.35810000     -67.48160000
H      -43.91180000     -33.71680000     -66.59210000
H      -43.03180000     -35.15000000     -67.18480000
S      -47.97390000     -32.05990000     -69.58680000
S      -43.02380000     -33.05970000     -68.62720000
C      -47.44240000     -32.48870000     -71.33340000
H      -46.94540000     -33.45720000     -71.33910000
H      -48.34180000     -32.70310000     -71.92680000
C      -42.87090000     -33.87690000     -70.29300000
H      -42.79570000     -34.98160000     -70.14810000
H      -41.95450000     -33.48970000     -70.67810000
C      -44.18510000     -33.45160000     -71.07700000
H      -44.96980000     -34.17610000     -70.69030000
H      -44.57260000     -32.51400000     -70.69620000
C      -46.56450000     -31.34230000     -71.86970000
H      -45.78350000     -31.01830000     -71.15850000
H      -47.23570000     -30.46970000     -71.91390000
C      -45.90020000     -31.54300000     -73.22080000
C      -46.28740000     -30.99040000     -74.40980000
C      -44.76610000     -32.50180000     -73.41530000
H      -47.14170000     -30.41470000     -74.54960000
C      -44.49610000     -32.66040000     -74.75550000
C      -44.00690000     -33.40890000     -72.57380000
C      -43.26300000     -34.27980000     -73.31810000
S      -45.45270000     -31.66910000     -75.78670000
S      -43.32310000     -33.96720000     -75.03860000
H      -42.69070000     -35.15660000     -72.95890000
