40
Properties=species:S:1:pos:R:3 #=T CELL(abcABC):=T 1.889726e+02=T 90.00000=T Traj:=T positionsangstrom=T Step:=T 0=T Bead:=T pbc="F F F"
C      -46.66690000     -32.19510000     -74.61780000
C      -46.44100000     -32.54750000     -73.28320000
C      -45.26120000     -32.16860000     -72.64610000
C      -44.31410000     -31.39130000     -73.33960000
C      -44.63780000     -30.96260000     -74.63780000
C      -45.79920000     -31.32640000     -75.25600000
H      -47.62300000     -32.34440000     -75.12760000
H      -45.26870000     -32.50850000     -71.58490000
H      -43.80840000     -30.39790000     -75.09740000
H      -46.02940000     -30.91460000     -76.21880000
C      -42.93140000     -31.00260000     -72.76160000
H      -42.84420000     -30.70690000     -71.72240000
H      -42.50620000     -30.22900000     -73.40340000
C      -47.51820000     -33.19170000     -72.47680000
H      -47.34650000     -33.12000000     -71.42200000
H      -48.48310000     -32.74200000     -72.79470000
S      -41.85080000     -32.53400000     -72.87140000
S      -47.66830000     -34.95160000     -72.91130000
C      -42.04310000     -32.81840000     -70.93460000
H      -40.99120000     -33.16190000     -70.65590000
H      -42.22710000     -31.78100000     -70.53920000
C      -45.78420000     -35.40590000     -72.80790000
H      -45.17030000     -34.55250000     -72.96550000
H      -45.52510000     -36.09600000     -73.59420000
C      -45.52700000     -36.15920000     -71.40880000
H      -45.90440000     -37.16370000     -71.52630000
H      -44.40930000     -36.31440000     -71.30080000
C      -43.04390000     -33.98420000     -70.63760000
H      -42.37680000     -34.72880000     -70.30670000
H      -43.52830000     -34.25650000     -71.52760000
C      -44.04660000     -33.66050000     -69.61300000
C      -43.87810000     -32.67570000     -68.62820000
C      -45.34560000     -34.30190000     -69.53730000
H      -42.95860000     -32.05930000     -68.56010000
C      -46.11940000     -33.75180000     -68.56020000
C      -46.07960000     -35.35180000     -70.24370000
C      -47.30930000     -35.67820000     -69.63910000
S      -45.35100000     -32.38820000     -67.70060000
S      -47.73340000     -34.55490000     -68.37520000
H      -47.93650000     -36.46320000     -70.07320000
