40
Properties=species:S:1:pos:R:3 #=T CELL(abcABC):=T 1.889726e+02=T 90.00000=T Traj:=T positionsangstrom=T Step:=T 0=T Bead:=T pbc="F F F"
C      -46.90260000     -32.00800000     -74.52460000
C      -46.55360000     -32.26030000     -73.15290000
C      -45.27080000     -31.87780000     -72.70510000
C      -44.36780000     -31.19830000     -73.51120000
C      -44.70380000     -31.06610000     -74.87260000
C      -46.00960000     -31.38070000     -75.36800000
H      -47.84470000     -32.37690000     -74.81060000
H      -45.03400000     -32.04550000     -71.66400000
H      -44.06660000     -30.50620000     -75.61690000
H      -46.28600000     -31.13900000     -76.39000000
C      -43.00950000     -30.82480000     -73.05720000
H      -43.06300000     -30.49290000     -72.02610000
H      -42.28320000     -30.23430000     -73.56930000
C      -47.49790000     -33.09550000     -72.34440000
H      -47.36360000     -33.04520000     -71.25610000
H      -48.54250000     -32.66490000     -72.54290000
S      -41.86130000     -32.58000000     -72.70700000
S      -47.70950000     -34.89310000     -72.98670000
C      -41.85830000     -33.08390000     -70.96540000
H      -40.86000000     -33.38820000     -70.71120000
H      -42.02160000     -32.25090000     -70.32270000
C      -46.08970000     -35.53160000     -72.88850000
H      -45.37740000     -34.74610000     -73.08410000
H      -45.96840000     -36.31560000     -73.65850000
C      -45.55780000     -36.17710000     -71.43140000
H      -45.91360000     -37.19450000     -71.30190000
H      -44.49080000     -36.11930000     -71.48020000
C      -42.93300000     -34.18200000     -70.48220000
H      -42.45520000     -35.05500000     -69.89610000
H      -43.46170000     -34.57270000     -71.42450000
C      -44.00150000     -33.69780000     -69.60620000
C      -43.91760000     -32.67990000     -68.62760000
C      -45.30010000     -34.26560000     -69.60160000
H      -43.02670000     -32.11230000     -68.52810000
C      -46.01710000     -33.75040000     -68.51310000
C      -45.99590000     -35.32790000     -70.30800000
C      -47.25380000     -35.54970000     -69.77940000
S      -45.25480000     -32.61150000     -67.54520000
S      -47.55780000     -34.54470000     -68.35070000
H      -48.00420000     -36.24180000     -70.23360000
