40
Properties=species:S:1:pos:R:3 #=T CELL(abcABC):=T 1.889726e+02=T 90.00000=T Traj:=T positionsangstrom=T Step:=T 0=T Bead:=T pbc="F F F"
C      -44.43640000     -36.28000000     -70.20600000
C      -44.42220000     -35.51710000     -69.03180000
C      -45.62050000     -35.06000000     -68.48480000
C      -46.88280000     -35.43510000     -69.01220000
C      -46.89550000     -36.34920000     -70.12440000
C      -45.70530000     -36.73730000     -70.72510000
H      -43.49550000     -36.69440000     -70.61270000
H      -45.56670000     -34.43650000     -67.56020000
H      -47.79150000     -36.58500000     -70.56490000
H      -45.86580000     -37.48690000     -71.54850000
C      -48.19620000     -35.00060000     -68.54960000
H      -48.29930000     -34.83070000     -67.51910000
H      -48.99840000     -35.67290000     -68.96910000
C      -43.12120000     -35.12750000     -68.47100000
H      -43.06980000     -35.43670000     -67.39190000
H      -42.16770000     -35.52010000     -68.92630000
S      -48.36620000     -33.24600000     -69.28140000
S      -42.79160000     -33.28880000     -68.33680000
C      -47.75120000     -33.44050000     -71.01510000
H      -46.90120000     -34.12170000     -71.18730000
H      -48.59170000     -33.75910000     -71.60140000
C      -42.65390000     -32.93070000     -70.08980000
H      -42.17580000     -33.77180000     -70.58590000
H      -41.90880000     -32.25050000     -70.27940000
C      -43.99470000     -32.51020000     -70.75380000
H      -44.71130000     -33.35500000     -70.77030000
H      -44.44710000     -31.62970000     -70.38370000
C      -47.27810000     -32.01010000     -71.50240000
H      -46.71640000     -31.46790000     -70.68780000
H      -48.26400000     -31.56750000     -71.59120000
C      -46.59820000     -31.99330000     -72.85820000
C      -47.29610000     -31.81340000     -74.00360000
C      -45.09590000     -32.11660000     -73.02580000
H      -48.37440000     -31.66960000     -74.23320000
C      -44.81900000     -31.95890000     -74.37560000
C      -43.84030000     -32.27460000     -72.26550000
C      -42.70970000     -32.08170000     -73.08240000
S      -46.21390000     -31.76360000     -75.44990000
S      -43.07510000     -31.95040000     -74.81490000
H      -41.74030000     -32.34270000     -72.64660000
