40
Properties=species:S:1:pos:R:3 #=T CELL(abcABC):=T 1.889726e+02=T 90.00000=T Traj:=T positionsangstrom=T Step:=T 0=T Bead:=T pbc="F F F"
C      -44.52810000     -36.42570000     -69.49500000
C      -44.61080000     -35.31960000     -68.67950000
C      -45.84600000     -34.71420000     -68.48930000
C      -46.97890000     -35.17810000     -69.08600000
C      -46.93680000     -36.27970000     -69.93310000
C      -45.70910000     -36.94760000     -70.06820000
H      -43.57690000     -37.01830000     -69.66660000
H      -45.98840000     -33.86370000     -67.79840000
H      -47.83930000     -36.76890000     -70.37420000
H      -45.68640000     -37.93620000     -70.56960000
C      -48.34040000     -34.49690000     -68.85860000
H      -48.61340000     -34.47490000     -67.78630000
H      -49.16670000     -35.05190000     -69.48310000
C      -43.36630000     -34.98080000     -67.98500000
H      -43.44090000     -34.96730000     -66.94220000
H      -42.57540000     -35.66450000     -68.34500000
S      -48.26430000     -32.71930000     -69.37620000
S      -42.70170000     -33.28720000     -68.39500000
C      -47.75830000     -32.85130000     -71.12850000
H      -47.13690000     -33.69510000     -71.31320000
H      -48.72690000     -33.07030000     -71.69910000
C      -42.63010000     -33.17410000     -70.27730000
H      -42.45990000     -34.18630000     -70.72050000
H      -41.84670000     -32.52360000     -70.55770000
C      -43.91040000     -32.62810000     -70.82090000
H      -44.68620000     -33.26470000     -70.52400000
H      -43.98040000     -31.64140000     -70.34050000
C      -47.13630000     -31.58440000     -71.64840000
H      -46.47740000     -31.36780000     -70.86580000
H      -47.85370000     -30.76360000     -71.49950000
C      -46.44800000     -31.67240000     -72.97380000
C      -47.07030000     -31.40300000     -74.14900000
C      -45.06970000     -32.19230000     -73.17700000
H      -48.01650000     -30.87890000     -74.29150000
C      -44.80860000     -32.33130000     -74.51480000
C      -43.95910000     -32.57210000     -72.38170000
C      -42.83680000     -32.86900000     -73.17530000
S      -46.06440000     -31.81720000     -75.55060000
S      -43.15150000     -32.86910000     -74.88570000
H      -41.97370000     -33.44750000     -72.72830000
