40
Properties=species:S:1:pos:R:3 #=T CELL(abcABC):=T 1.889726e+02=T 90.00000=T Traj:=T positionsangstrom=T Step:=T 0=T Bead:=T pbc="F F F"
C      -45.29420000     -32.50320000     -67.72910000
C      -44.62970000     -32.49740000     -68.96990000
C      -44.64420000     -33.55440000     -69.77320000
C      -45.15120000     -34.81460000     -69.33720000
C      -45.74300000     -34.83940000     -68.02140000
C      -45.82110000     -33.70310000     -67.23550000
H      -45.39840000     -31.58980000     -67.21830000
H      -44.23730000     -33.37620000     -70.77480000
H      -46.29860000     -35.77600000     -67.68130000
H      -46.41770000     -33.65150000     -66.33520000
C      -45.08040000     -36.07560000     -70.19500000
H      -44.56940000     -36.90800000     -69.68960000
H      -44.60130000     -35.90360000     -71.14060000
C      -44.25740000     -31.07970000     -69.42730000
H      -43.79600000     -30.54760000     -68.53460000
H      -43.53440000     -31.04590000     -70.23520000
S      -46.89610000     -36.55780000     -70.70930000
S      -45.73590000     -30.02940000     -69.90160000
C      -47.55600000     -35.03590000     -71.39030000
H      -48.58880000     -35.15060000     -71.13760000
H      -47.24860000     -34.26090000     -70.75490000
C      -46.98240000     -31.15530000     -70.64820000
H      -48.00830000     -30.73010000     -70.56100000
H      -46.91620000     -32.13230000     -70.05650000
C      -46.79120000     -31.22350000     -72.16540000
H      -47.70870000     -31.65530000     -72.61340000
H      -46.70130000     -30.15290000     -72.55390000
C      -47.42810000     -34.67200000     -72.88460000
H      -47.86590000     -33.64000000     -73.02240000
H      -47.95750000     -35.36970000     -73.56880000
C      -45.99480000     -34.51440000     -73.25850000
C      -45.18280000     -35.54080000     -73.70810000
C      -45.31420000     -33.22740000     -73.22250000
H      -45.62000000     -36.47190000     -73.97830000
C      -44.01560000     -33.41370000     -73.55380000
C      -45.54920000     -31.91830000     -72.65050000
C      -44.38970000     -31.16690000     -72.71120000
S      -43.51100000     -34.98860000     -74.04130000
S      -43.02320000     -32.00470000     -73.32050000
H      -44.47540000     -30.01730000     -72.63880000
