40
Properties=species:S:1:pos:R:3 #=T CELL(abcABC):=T 1.889726e+02=T 90.00000=T Traj:=T positionsangstrom=T Step:=T 0=T Bead:=T pbc="F F F"
C      -44.31870000     -36.49160000     -70.17010000
C      -44.36320000     -35.65940000     -69.04660000
C      -45.59890000     -35.20850000     -68.56570000
C      -46.75750000     -35.62940000     -69.11250000
C      -46.74870000     -36.52320000     -70.23320000
C      -45.51800000     -36.94480000     -70.72770000
H      -43.33580000     -36.69820000     -70.70640000
H      -45.68220000     -34.40730000     -67.82080000
H      -47.63880000     -36.96620000     -70.71100000
H      -45.49720000     -37.49690000     -71.63610000
C      -48.21000000     -34.96450000     -68.70230000
H      -48.15250000     -34.85010000     -67.56080000
H      -48.96090000     -35.71020000     -68.94030000
C      -43.06510000     -35.16010000     -68.39520000
H      -43.08640000     -35.56480000     -67.39110000
H      -42.27740000     -35.67020000     -68.86800000
S      -48.43860000     -33.30980000     -69.32930000
S      -42.74310000     -33.28470000     -68.39860000
C      -47.78750000     -33.37550000     -71.02890000
H      -46.86100000     -34.00020000     -70.99540000
H      -48.49250000     -33.81870000     -71.74590000
C      -42.64930000     -32.76610000     -70.18860000
H      -42.10210000     -33.57430000     -70.73990000
H      -42.22850000     -31.75840000     -70.23110000
C      -44.08120000     -32.64870000     -70.75680000
H      -44.76130000     -33.50580000     -70.55370000
H      -44.59790000     -31.90950000     -70.09090000
C      -47.23860000     -31.98330000     -71.40390000
H      -46.51210000     -31.82330000     -70.72040000
H      -47.89560000     -31.09070000     -71.47170000
C      -46.62630000     -31.99970000     -72.84470000
C      -47.27170000     -31.67020000     -73.98270000
C      -45.14800000     -32.08460000     -73.03230000
H      -48.30810000     -31.44890000     -74.11810000
C      -44.84790000     -31.85660000     -74.38690000
C      -44.02010000     -32.29680000     -72.22130000
C      -42.81650000     -32.12860000     -72.95870000
S      -46.27360000     -31.54760000     -75.39490000
S      -43.11260000     -31.82840000     -74.70220000
H      -41.82370000     -32.16470000     -72.44670000
