40
Properties=species:S:1:pos:R:3 #=T CELL(abcABC):=T 1.889726e+02=T 90.00000=T Traj:=T positionsangstrom=T Step:=T 0=T Bead:=T pbc="F F F"
C      -44.65780000     -36.49270000     -68.76730000
C      -44.71330000     -35.19500000     -68.26210000
C      -45.92680000     -34.38520000     -68.35730000
C      -47.02200000     -35.01700000     -69.00120000
C      -46.91360000     -36.32160000     -69.53750000
C      -45.73710000     -37.05330000     -69.51310000
H      -43.72900000     -36.96480000     -68.67500000
H      -46.00290000     -33.40250000     -67.97430000
H      -47.77730000     -36.65290000     -70.19660000
H      -45.60130000     -37.96780000     -70.00980000
C      -48.31710000     -34.16470000     -69.07650000
H      -48.77390000     -34.13760000     -68.03100000
H      -49.02000000     -34.60120000     -69.82320000
C      -43.48320000     -34.63760000     -67.59040000
H      -43.74170000     -34.20080000     -66.60420000
H      -42.65940000     -35.43370000     -67.54070000
S      -48.14860000     -32.35740000     -69.52830000
S      -42.83630000     -33.15630000     -68.52550000
C      -47.64620000     -32.50650000     -71.29150000
H      -47.26650000     -33.53510000     -71.34970000
H      -48.54650000     -32.39620000     -71.88380000
C      -42.77890000     -33.61800000     -70.34600000
H      -42.82100000     -34.65110000     -70.57000000
H      -41.86570000     -33.23330000     -70.78350000
C      -43.99840000     -32.99000000     -71.00870000
H      -44.86720000     -33.39700000     -70.52000000
H      -44.06270000     -31.87260000     -70.90520000
C      -46.73530000     -31.26180000     -71.68600000
H      -46.01400000     -30.92210000     -70.96540000
H      -47.40350000     -30.43100000     -71.89280000
C      -46.13460000     -31.52880000     -73.04440000
C      -46.65910000     -30.95010000     -74.17440000
C      -45.08280000     -32.41910000     -73.33060000
H      -47.57590000     -30.40870000     -74.35850000
C      -44.82310000     -32.56830000     -74.70530000
C      -44.09890000     -33.16950000     -72.52930000
C      -43.14910000     -33.84340000     -73.28940000
S      -45.81690000     -31.49260000     -75.65110000
S      -43.41030000     -33.56750000     -75.01240000
H      -42.15160000     -34.17680000     -73.05410000
