40
Properties=species:S:1:pos:R:3 #=T CELL(abcABC):=T 1.889726e+02=T 90.00000=T Traj:=T positionsangstrom=T Step:=T 0=T Bead:=T pbc="F F F"
C      -44.56120000     -36.59930000     -69.14480000
C      -44.61270000     -35.31640000     -68.51890000
C      -45.87230000     -34.70970000     -68.36180000
C      -46.96980000     -35.11200000     -69.06550000
C      -46.86810000     -36.37820000     -69.77960000
C      -45.69230000     -37.10750000     -69.79330000
H      -43.63790000     -37.21290000     -69.24370000
H      -45.96330000     -33.80370000     -67.73380000
H      -47.64480000     -36.78220000     -70.31260000
H      -45.60360000     -38.03950000     -70.42360000
C      -48.38210000     -34.38940000     -69.02090000
H      -48.78280000     -34.40190000     -68.05420000
H      -49.10370000     -34.91550000     -69.68900000
C      -43.42710000     -34.71510000     -67.78950000
H      -43.73870000     -34.60490000     -66.73710000
H      -42.54970000     -35.46940000     -67.85660000
S      -48.22680000     -32.62800000     -69.45880000
S      -42.87930000     -33.06760000     -68.44090000
C      -47.50320000     -32.70200000     -71.13810000
H      -46.87180000     -33.58460000     -71.24860000
H      -48.40150000     -32.78920000     -71.81060000
C      -42.72120000     -33.35410000     -70.23690000
H      -42.64920000     -34.42570000     -70.37360000
H      -41.83700000     -32.95040000     -70.62110000
C      -43.84990000     -32.72810000     -70.94410000
H      -44.80910000     -33.12920000     -70.50840000
H      -43.93190000     -31.63560000     -70.71230000
C      -46.81040000     -31.42830000     -71.53510000
H      -45.98510000     -31.21420000     -70.83010000
H      -47.41840000     -30.56560000     -71.51100000
C      -46.27510000     -31.57680000     -72.94040000
C      -47.01210000     -31.29820000     -74.05550000
C      -44.96810000     -32.26700000     -73.26930000
H      -47.87220000     -30.61870000     -74.04850000
C      -44.84560000     -32.35970000     -74.66920000
C      -43.90570000     -32.81980000     -72.50050000
C      -42.88550000     -33.30110000     -73.34250000
S      -46.15970000     -31.68110000     -75.54530000
S      -43.24330000     -33.12790000     -75.06580000
H      -42.15140000     -33.97310000     -72.90420000
