40
Properties=species:S:1:pos:R:3 #=T CELL(abcABC):=T 1.889726e+02=T 90.00000=T Traj:=T positionsangstrom=T Step:=T 0=T Bead:=T pbc="F F F"
C      -43.72080000     -36.78710000     -69.93430000
C      -44.15930000     -35.83160000     -69.02990000
C      -45.51620000     -35.40750000     -69.09470000
C      -46.44990000     -36.19640000     -69.84420000
C      -46.01240000     -37.22910000     -70.70430000
C      -44.63080000     -37.47010000     -70.70980000
H      -42.65510000     -36.96890000     -69.93140000
H      -45.83690000     -34.56440000     -68.46610000
H      -46.60380000     -37.82290000     -71.35420000
H      -44.15610000     -38.24950000     -71.47150000
C      -47.89700000     -35.84470000     -69.85790000
H      -48.44880000     -36.34220000     -69.00480000
H      -48.34220000     -36.12930000     -70.73670000
C      -43.15610000     -35.11530000     -68.14470000
H      -43.21540000     -35.50280000     -67.06110000
H      -42.17120000     -35.23050000     -68.60020000
S      -48.20150000     -33.96440000     -69.76540000
S      -43.43070000     -33.30950000     -68.12230000
C      -47.77060000     -33.30890000     -71.42290000
H      -46.83130000     -33.82960000     -71.63810000
H      -48.53530000     -33.62500000     -72.21570000
C      -43.18490000     -32.79030000     -69.82710000
H      -42.51460000     -33.44690000     -70.35430000
H      -42.64640000     -31.81840000     -69.77450000
C      -44.43260000     -32.55740000     -70.62300000
H      -45.03740000     -33.46350000     -70.71630000
H      -45.10050000     -31.85380000     -70.17490000
C      -47.55730000     -31.74480000     -71.42490000
H      -46.99050000     -31.33270000     -70.55030000
H      -48.59360000     -31.30540000     -71.39280000
C      -46.68070000     -31.38550000     -72.64440000
C      -47.33450000     -30.95770000     -73.76250000
C      -45.24860000     -31.61590000     -72.80800000
H      -48.46750000     -30.88020000     -73.88610000
C      -44.90360000     -31.34790000     -74.10780000
C      -44.12720000     -32.04150000     -71.96580000
C      -42.94880000     -32.08450000     -72.70070000
S      -46.24400000     -30.87540000     -75.13290000
S      -43.19430000     -31.62680000     -74.39350000
H      -41.99800000     -32.40710000     -72.38080000
