40
Properties=species:S:1:pos:R:3 #=T CELL(abcABC):=T 1.889726e+02=T 90.00000=T Traj:=T positionsangstrom=T Step:=T 0=T Bead:=T pbc="F F F"
C      -45.56680000     -31.93100000     -73.29490000
C      -46.86900000     -32.11340000     -72.76750000
C      -47.23200000     -31.73070000     -71.48750000
C      -46.25930000     -31.05280000     -70.72940000
C      -45.05630000     -30.71820000     -71.30680000
C      -44.66060000     -31.16950000     -72.62700000
H      -45.29600000     -32.37370000     -74.22550000
H      -48.22210000     -31.88150000     -71.09570000
H      -44.30780000     -30.21580000     -70.70340000
H      -43.66950000     -31.05980000     -72.99740000
C      -46.57820000     -30.55250000     -69.31080000
H      -47.54900000     -30.00720000     -69.24310000
H      -45.83790000     -29.78630000     -68.95340000
C      -47.89810000     -32.93640000     -73.51520000
H      -48.89390000     -32.79500000     -72.95660000
H      -48.06580000     -32.59490000     -74.51140000
S      -46.42660000     -31.75490000     -67.91960000
S      -47.72880000     -34.68790000     -73.64130000
C      -46.52350000     -33.37600000     -68.76880000
H      -47.37060000     -33.90110000     -68.23640000
H      -46.79180000     -33.09020000     -69.81130000
C      -47.73160000     -35.13380000     -71.81230000
H      -48.57360000     -35.84370000     -71.66150000
H      -47.93280000     -34.33200000     -71.12650000
C      -46.40030000     -35.89740000     -71.51160000
H      -46.33540000     -36.18220000     -70.45770000
H      -46.35120000     -36.81760000     -72.13840000
C      -45.23920000     -34.19750000     -68.66790000
H      -45.44040000     -35.28350000     -68.85420000
H      -44.71460000     -34.13070000     -67.65540000
C      -44.15840000     -33.99620000     -69.70010000
C      -42.93720000     -33.51110000     -69.30210000
C      -44.25320000     -34.45310000     -71.07070000
H      -42.68970000     -33.15880000     -68.26080000
C      -43.03500000     -34.17850000     -71.74040000
C      -45.12110000     -35.23300000     -71.89360000
C      -44.62630000     -35.54540000     -73.11550000
S      -41.79100000     -33.39900000     -70.76380000
S      -42.99810000     -34.90260000     -73.36430000
H      -45.13280000     -36.13530000     -73.85100000
