40
Properties=species:S:1:pos:R:3 #=T CELL(abcABC):=T 1.889726e+02=T 90.00000=T Traj:=T positionsangstrom=T Step:=T 0=T Bead:=T pbc="F F F"
C      -45.63390000     -32.01440000     -73.47350000
C      -46.86810000     -32.23220000     -72.84220000
C      -47.11250000     -31.66090000     -71.63140000
C      -46.07730000     -31.15140000     -70.84860000
C      -44.77970000     -31.00840000     -71.41910000
C      -44.59150000     -31.46170000     -72.68250000
H      -45.45410000     -32.31970000     -74.52480000
H      -48.14660000     -31.82410000     -71.24170000
H      -43.91580000     -30.57050000     -70.91640000
H      -43.64740000     -31.37610000     -73.05030000
C      -46.35550000     -30.59980000     -69.48080000
H      -47.31000000     -30.12270000     -69.58760000
H      -45.70930000     -29.76970000     -69.22830000
C      -47.98810000     -32.80530000     -73.64400000
H      -48.89260000     -32.57090000     -73.11560000
H      -47.97770000     -32.45070000     -74.67260000
S      -46.36420000     -31.72270000     -68.05060000
S      -47.89850000     -34.74060000     -73.70840000
C      -46.53190000     -33.39810000     -68.65070000
H      -47.28730000     -33.92350000     -68.00890000
H      -46.82290000     -33.45600000     -69.67150000
C      -47.75550000     -35.07880000     -71.90460000
H      -48.67140000     -35.62150000     -71.52290000
H      -47.62650000     -34.14480000     -71.34430000
C      -46.41860000     -35.87270000     -71.44900000
H      -46.55360000     -35.96190000     -70.32680000
H      -46.44550000     -36.84600000     -71.89430000
C      -45.27740000     -34.34210000     -68.47660000
H      -45.73590000     -35.29270000     -68.52920000
H      -44.82360000     -34.22670000     -67.49520000
C      -44.23730000     -34.08060000     -69.59170000
C      -43.09880000     -33.37410000     -69.29470000
C      -44.15790000     -34.62660000     -70.92640000
H      -42.88750000     -32.72800000     -68.37680000
C      -43.01990000     -34.21630000     -71.56840000
C      -45.05930000     -35.28620000     -71.87510000
C      -44.49530000     -35.46910000     -73.09300000
S      -41.96770000     -33.28510000     -70.60100000
S      -42.98200000     -34.65200000     -73.22160000
H      -44.93860000     -35.97490000     -73.90470000
