40
Properties=species:S:1:pos:R:3 #=T CELL(abcABC):=T 1.889726e+02=T 90.00000=T Traj:=T positionsangstrom=T Step:=T 0=T Bead:=T pbc="F F F"
C      -45.59680000     -31.46590000     -73.70000000
C      -46.90010000     -31.83560000     -73.24270000
C      -47.20120000     -31.39100000     -71.93070000
C      -46.26020000     -30.84480000     -71.04320000
C      -44.91880000     -30.69210000     -71.47620000
C      -44.63100000     -30.91870000     -72.80610000
H      -45.28010000     -31.73430000     -74.68530000
H      -48.21880000     -31.34370000     -71.58930000
H      -44.09830000     -30.45630000     -70.77390000
H      -43.63880000     -30.76010000     -73.15240000
C      -46.67340000     -30.40180000     -69.59360000
H      -47.78760000     -30.44330000     -69.45130000
H      -46.47730000     -29.39330000     -69.41230000
C      -47.99290000     -32.67850000     -73.90300000
H      -48.88100000     -32.69550000     -73.41460000
H      -48.18570000     -32.35630000     -74.97780000
S      -45.85460000     -31.58640000     -68.45050000
S      -47.55580000     -34.52270000     -73.84700000
C      -46.70940000     -33.22880000     -68.84640000
H      -47.65840000     -33.39350000     -68.33680000
H      -47.09770000     -33.29440000     -69.89670000
C      -47.60610000     -34.81290000     -72.01150000
H      -48.66530000     -35.03690000     -71.77570000
H      -47.15280000     -33.90590000     -71.63300000
C      -46.67080000     -35.94040000     -71.65330000
H      -46.94040000     -36.23510000     -70.63510000
H      -46.73680000     -36.82440000     -72.37360000
C      -45.72380000     -34.36090000     -68.56930000
H      -46.28680000     -35.27240000     -68.82080000
H      -45.58350000     -34.35110000     -67.53980000
C      -44.44500000     -34.34110000     -69.33540000
C      -43.31180000     -33.70540000     -68.90700000
C      -44.31030000     -34.78030000     -70.68690000
H      -43.26720000     -33.14720000     -67.92200000
C      -43.04380000     -34.54630000     -71.28180000
C      -45.17260000     -35.53570000     -71.59960000
C      -44.49360000     -35.82240000     -72.74940000
S      -42.03480000     -33.65150000     -70.13960000
S      -42.81770000     -35.22660000     -72.88270000
H      -44.84160000     -36.26980000     -73.58750000
