40
Properties=species:S:1:pos:R:3 #=T CELL(abcABC):=T 1.889726e+02=T 90.00000=T Traj:=T positionsangstrom=T Step:=T 0=T Bead:=T pbc="F F F"
C      -45.53870000     -32.22900000     -73.55610000
C      -46.85290000     -32.27220000     -73.04510000
C      -47.06860000     -31.71500000     -71.73960000
C      -45.98640000     -31.10160000     -71.06010000
C      -44.70700000     -31.04220000     -71.62250000
C      -44.53600000     -31.62950000     -72.88970000
H      -45.32560000     -32.82860000     -74.40670000
H      -48.08080000     -31.61900000     -71.37260000
H      -43.82370000     -30.79030000     -71.02990000
H      -43.55320000     -31.69470000     -73.30190000
C      -46.23840000     -30.48680000     -69.71090000
H      -47.26020000     -30.17160000     -69.43990000
H      -45.61110000     -29.65740000     -69.62410000
C      -48.01540000     -32.89640000     -73.73590000
H      -48.88680000     -32.48420000     -73.25150000
H      -48.09800000     -32.66060000     -74.80870000
S      -45.67410000     -31.71230000     -68.25100000
S      -48.09610000     -34.77530000     -73.72250000
C      -46.68250000     -33.22050000     -68.61450000
H      -47.41360000     -33.26890000     -67.79620000
H      -47.10250000     -33.21690000     -69.69560000
C      -47.69190000     -35.07950000     -71.96890000
H      -48.56960000     -35.39390000     -71.39780000
H      -47.52320000     -34.02020000     -71.58300000
C      -46.48410000     -35.91350000     -71.71860000
H      -46.48160000     -36.09410000     -70.63790000
H      -46.58810000     -36.91790000     -72.23750000
C      -45.72810000     -34.40420000     -68.61070000
H      -46.26370000     -35.39220000     -68.76860000
H      -45.34600000     -34.51180000     -67.58330000
C      -44.50890000     -34.20620000     -69.48830000
C      -43.42990000     -33.55900000     -68.88560000
C      -44.33460000     -34.53430000     -70.88680000
H      -43.28330000     -33.38020000     -67.85110000
C      -43.08400000     -34.15520000     -71.35920000
C      -45.09320000     -35.28560000     -71.91820000
C      -44.42130000     -35.29740000     -73.09520000
S      -42.17720000     -33.27860000     -70.09850000
S      -42.87860000     -34.47830000     -73.07110000
H      -44.68120000     -35.87840000     -74.02310000
