40
Properties=species:S:1:pos:R:3 #=T CELL(abcABC):=T 1.889726e+02=T 90.00000=T Traj:=T positionsangstrom=T Step:=T 0=T Bead:=T pbc="F F F"
C      -41.33780000     -33.53840000     -72.11940000
C      -41.99330000     -34.60270000     -71.32120000
C      -42.44840000     -34.22510000     -70.08250000
C      -42.53650000     -32.87320000     -69.73440000
C      -42.03120000     -31.85120000     -70.55360000
C      -41.32770000     -32.22460000     -71.72310000
H      -40.85770000     -33.89180000     -73.02900000
H      -42.98090000     -34.87450000     -69.38300000
H      -42.22560000     -30.80950000     -70.26040000
H      -41.04220000     -31.46100000     -72.39920000
C      -43.11260000     -32.56650000     -68.41900000
H      -42.48970000     -31.80080000     -68.03230000
H      -43.19430000     -33.41760000     -67.74130000
C      -42.03160000     -35.98490000     -71.87470000
H      -41.09780000     -36.23590000     -72.28760000
H      -42.24410000     -36.87480000     -71.17590000
S      -44.90960000     -31.86140000     -68.50920000
S      -43.22750000     -36.03210000     -73.28500000
C      -46.01730000     -33.28780000     -68.16470000
H      -45.57540000     -33.94820000     -67.45860000
H      -46.85440000     -32.81520000     -67.66330000
C      -44.76620000     -35.52070000     -72.55150000
H      -44.92990000     -35.96170000     -71.55570000
H      -45.69370000     -35.84690000     -73.11540000
C      -44.88280000     -33.95050000     -72.45430000
H      -44.31400000     -33.54990000     -71.57440000
H      -44.29270000     -33.64450000     -73.30860000
C      -46.51860000     -34.15870000     -69.27660000
H      -47.09770000     -34.94810000     -68.90080000
H      -45.68040000     -34.55390000     -69.91600000
C      -47.46040000     -33.28410000     -70.26660000
C      -48.73260000     -32.87320000     -69.92570000
C      -47.34260000     -33.18780000     -71.74510000
H      -49.08110000     -32.92600000     -68.89290000
C      -48.46600000     -32.58350000     -72.37860000
C      -46.33720000     -33.41780000     -72.72690000
C      -46.68180000     -32.99360000     -73.99680000
S      -49.74700000     -32.13700000     -71.21740000
S      -48.27430000     -32.33350000     -74.08230000
H      -46.12700000     -33.44280000     -74.76900000
