40
Properties=species:S:1:pos:R:3 #=T CELL(abcABC):=T 1.889726e+02=T 90.00000=T Traj:=T positionsangstrom=T Step:=T 0=T Bead:=T pbc="F F F"
C      -48.22100000     -34.01590000     -74.49520000
C      -47.23960000     -34.67590000     -73.69010000
C      -45.88070000     -34.58110000     -73.99760000
C      -45.40890000     -33.73170000     -74.95360000
C      -46.36440000     -33.07890000     -75.74150000
C      -47.74450000     -33.26420000     -75.55350000
H      -49.31710000     -34.18780000     -74.26910000
H      -45.22450000     -35.17110000     -73.44200000
H      -46.05780000     -32.32120000     -76.48800000
H      -48.54220000     -32.70310000     -76.10440000
C      -43.92310000     -33.46170000     -75.17020000
H      -43.71280000     -33.15540000     -76.21850000
H      -43.34980000     -34.42470000     -75.05220000
C      -47.67580000     -35.62340000     -72.54720000
H      -48.28630000     -36.45460000     -72.99350000
H      -46.75040000     -36.05570000     -72.09780000
S      -43.46360000     -31.98430000     -74.09490000
S      -48.63480000     -34.85050000     -71.14230000
C      -42.95770000     -32.71630000     -72.39420000
H      -43.44150000     -33.72210000     -72.22150000
H      -41.89310000     -32.91780000     -72.38510000
C      -48.01280000     -33.10950000     -70.88140000
H      -48.36370000     -32.81180000     -69.89820000
H      -48.34670000     -32.59020000     -71.77050000
C      -46.35860000     -33.00900000     -70.84010000
H      -45.85820000     -33.83530000     -71.45090000
H      -46.09670000     -32.03120000     -71.41720000
C      -43.38780000     -31.70460000     -71.30230000
H      -44.48610000     -31.45970000     -71.49040000
H      -42.68480000     -30.84020000     -71.44310000
C      -43.26530000     -32.29980000     -69.91800000
C      -42.10730000     -32.22340000     -69.25250000
C      -44.35740000     -32.87550000     -69.16780000
H      -41.25380000     -31.67010000     -69.65780000
C      -43.97660000     -33.20330000     -67.84940000
C      -45.74640000     -33.20580000     -69.46970000
C      -46.39840000     -33.87150000     -68.45520000
S      -42.29090000     -32.81450000     -67.60090000
S      -45.35430000     -33.96910000     -67.01410000
H      -47.42710000     -34.20600000     -68.44000000
