40
Properties=species:S:1:pos:R:3 #=T CELL(abcABC):=T 1.889726e+02=T 90.00000=T Traj:=T positionsangstrom=T Step:=T 0=T Bead:=T pbc="F F F"
C      -41.39960000     -33.41710000     -72.25090000
C      -41.97050000     -34.41730000     -71.46250000
C      -42.51420000     -34.16080000     -70.18800000
C      -42.41890000     -32.85760000     -69.63060000
C      -41.81100000     -31.85870000     -70.40180000
C      -41.22620000     -32.12060000     -71.66570000
H      -40.98270000     -33.55380000     -73.18460000
H      -43.01290000     -34.93620000     -69.59950000
H      -41.85160000     -30.82160000     -70.07670000
H      -40.64250000     -31.36790000     -72.18280000
C      -43.14210000     -32.62440000     -68.27500000
H      -42.61830000     -31.98220000     -67.60640000
H      -43.16880000     -33.59900000     -67.86230000
C      -42.04360000     -35.75010000     -72.05990000
H      -41.05590000     -36.00850000     -72.35120000
H      -42.44560000     -36.51500000     -71.25540000
S      -44.82850000     -31.99670000     -68.44270000
S      -43.25620000     -35.98050000     -73.49380000
C      -46.00400000     -33.43810000     -68.21310000
H      -45.50460000     -34.08260000     -67.47630000
H      -46.86450000     -32.94490000     -67.70240000
C      -44.82010000     -35.37470000     -72.69890000
H      -45.01710000     -35.77750000     -71.67960000
H      -45.57370000     -35.81480000     -73.39360000
C      -44.99140000     -33.77690000     -72.71150000
H      -44.51760000     -33.43620000     -71.78400000
H      -44.29540000     -33.46270000     -73.52900000
C      -46.39620000     -34.24420000     -69.46060000
H      -46.76940000     -35.27400000     -69.21830000
H      -45.46800000     -34.59610000     -70.01680000
C      -47.39580000     -33.49760000     -70.31200000
C      -48.57220000     -33.11630000     -69.78600000
C      -47.31860000     -33.09410000     -71.74700000
H      -48.84380000     -33.21890000     -68.73700000
C      -48.50090000     -32.55630000     -72.18680000
C      -46.34100000     -33.27890000     -72.84700000
C      -46.85430000     -32.93610000     -74.08420000
S      -49.74990000     -32.47380000     -70.97530000
S      -48.46230000     -32.15910000     -73.89240000
H      -46.36650000     -32.97500000     -75.07380000
