40
Properties=species:S:1:pos:R:3 #=T CELL(abcABC):=T 1.889726e+02=T 90.00000=T Traj:=T positionsangstrom=T Step:=T 0=T Bead:=T pbc="F F F"
C      -44.50620000     -32.04690000     -73.45090000
C      -45.91220000     -31.93160000     -73.26850000
C      -46.34580000     -31.33070000     -72.07080000
C      -45.49160000     -30.91520000     -71.01930000
C      -44.09850000     -31.10080000     -71.23250000
C      -43.60810000     -31.60840000     -72.47890000
H      -44.18680000     -32.39520000     -74.48960000
H      -47.37350000     -31.07950000     -71.94090000
H      -43.36710000     -30.61630000     -70.47520000
H      -42.62960000     -31.76760000     -72.62360000
C      -46.19730000     -30.37350000     -69.75420000
H      -47.25900000     -30.05230000     -70.01690000
H      -45.64280000     -29.49660000     -69.37580000
C      -46.86200000     -32.33820000     -74.30430000
H      -47.78380000     -31.72240000     -74.15480000
H      -46.47080000     -32.26770000     -75.34240000
S      -46.28110000     -31.47520000     -68.26010000
S      -47.44460000     -34.17590000     -74.18710000
C      -47.12450000     -32.96890000     -68.85410000
H      -48.02220000     -33.06450000     -68.25470000
H      -47.43530000     -32.76010000     -69.90630000
C      -47.83600000     -34.55220000     -72.44860000
H      -48.95690000     -34.74750000     -72.27030000
H      -47.73900000     -33.62800000     -71.87010000
C      -47.05620000     -35.69700000     -71.81140000
H      -47.55900000     -35.90970000     -70.83550000
H      -47.35070000     -36.60630000     -72.48150000
C      -46.38180000     -34.38170000     -68.74300000
H      -47.01130000     -35.16530000     -69.22800000
H      -46.20900000     -34.56330000     -67.70200000
C      -45.02380000     -34.27750000     -69.43070000
C      -43.90660000     -33.83370000     -68.77510000
C      -44.79420000     -34.75450000     -70.77750000
H      -43.81470000     -33.44410000     -67.77320000
C      -43.44800000     -34.58340000     -71.10040000
C      -45.59620000     -35.49400000     -71.74420000
C      -44.73520000     -35.97730000     -72.70130000
S      -42.52620000     -33.78260000     -69.88450000
S      -43.12540000     -35.26880000     -72.67790000
H      -45.15850000     -36.40330000     -73.60470000
