40
Properties=species:S:1:pos:R:3 #=T CELL(abcABC):=T 1.889726e+02=T 90.00000=T Traj:=T positionsangstrom=T Step:=T 0=T Bead:=T pbc="F F F"
C      -44.55690000     -32.10000000     -73.27760000
C      -45.90490000     -32.06820000     -73.07750000
C      -46.44190000     -31.48600000     -71.87700000
C      -45.62120000     -30.93310000     -70.93150000
C      -44.20420000     -30.93870000     -71.18170000
C      -43.70520000     -31.48550000     -72.36220000
H      -44.05710000     -32.46790000     -74.19340000
H      -47.50510000     -31.54640000     -71.77960000
H      -43.66690000     -30.41580000     -70.41520000
H      -42.70690000     -31.37040000     -72.57030000
C      -46.18570000     -30.19760000     -69.77190000
H      -47.08180000     -29.71650000     -70.11480000
H      -45.54190000     -29.45210000     -69.33810000
C      -46.79150000     -32.54310000     -74.23790000
H      -47.68550000     -31.96820000     -74.49840000
H      -46.18950000     -32.53510000     -75.11900000
S      -46.47810000     -31.41270000     -68.35620000
S      -47.30720000     -34.31080000     -74.10490000
C      -47.21890000     -33.01180000     -68.93080000
H      -48.14380000     -33.06940000     -68.41070000
H      -47.39810000     -32.86370000     -70.01990000
C      -47.82050000     -34.63670000     -72.35710000
H      -48.88250000     -34.96840000     -72.28070000
H      -47.75840000     -33.63760000     -72.03630000
C      -46.96290000     -35.75720000     -71.71100000
H      -47.20140000     -35.84330000     -70.71020000
H      -47.18910000     -36.73030000     -72.22930000
C      -46.20870000     -34.18750000     -68.62660000
H      -46.69140000     -35.14080000     -68.62800000
H      -45.86370000     -34.09780000     -67.59940000
C      -45.01420000     -34.12350000     -69.55080000
C      -43.90130000     -33.63970000     -68.97390000
C      -44.77260000     -34.80490000     -70.76720000
H      -43.74790000     -33.16130000     -68.00030000
C      -43.45920000     -34.69240000     -71.16540000
C      -45.54470000     -35.40980000     -71.84150000
C      -44.78250000     -35.68930000     -72.93500000
S      -42.47480000     -33.86110000     -69.96670000
S      -43.10030000     -35.30750000     -72.74590000
H      -45.13380000     -36.16270000     -73.82060000
