40
Properties=species:S:1:pos:R:3 #=T CELL(abcABC):=T 1.889726e+02=T 90.00000=T Traj:=T positionsangstrom=T Step:=T 0=T Bead:=T pbc="F F F"
C      -41.35950000     -33.41340000     -72.13870000
C      -41.85260000     -34.52130000     -71.46680000
C      -42.44200000     -34.35650000     -70.20700000
C      -42.50690000     -33.07720000     -69.61860000
C      -42.00680000     -31.95010000     -70.33210000
C      -41.48240000     -32.10590000     -71.58960000
H      -40.96210000     -33.66310000     -73.13620000
H      -42.70350000     -35.22510000     -69.57700000
H      -42.13250000     -30.96540000     -69.88920000
H      -41.00750000     -31.24360000     -72.11880000
C      -43.28420000     -32.82470000     -68.36740000
H      -42.56610000     -32.41110000     -67.61040000
H      -43.62870000     -33.75250000     -67.84270000
C      -41.84690000     -35.84910000     -72.11940000
H      -40.96680000     -36.13120000     -72.62850000
H      -42.06240000     -36.49110000     -71.29370000
S      -44.86860000     -31.89230000     -68.52030000
S      -43.15790000     -36.05270000     -73.34140000
C      -46.14710000     -33.27580000     -68.11370000
H      -45.84890000     -33.88520000     -67.23410000
H      -47.03140000     -32.60250000     -67.84110000
C      -44.76770000     -35.46750000     -72.56950000
H      -44.68560000     -36.02230000     -71.65000000
H      -45.50980000     -35.89170000     -73.17850000
C      -44.81340000     -33.95920000     -72.45040000
H      -44.37170000     -33.54430000     -71.58060000
H      -44.26260000     -33.52940000     -73.31770000
C      -46.60220000     -34.06170000     -69.41110000
H      -46.89290000     -35.08790000     -69.10440000
H      -45.71740000     -34.33840000     -69.95350000
C      -47.54870000     -33.30640000     -70.33160000
C      -48.76310000     -32.82050000     -69.88470000
C      -47.30540000     -33.06630000     -71.74250000
H      -49.01050000     -32.85300000     -68.82290000
C      -48.46320000     -32.53030000     -72.34760000
C      -46.32310000     -33.43200000     -72.67450000
C      -46.70220000     -33.07980000     -73.96150000
S      -49.77400000     -32.04910000     -71.16680000
S      -48.30020000     -32.38780000     -74.05730000
H      -45.95930000     -33.10380000     -74.79710000
