40
Properties=species:S:1:pos:R:3 #=T CELL(abcABC):=T 1.889726e+02=T 90.00000=T Traj:=T positionsangstrom=T Step:=T 0=T Bead:=T pbc="F F F"
C      -44.46370000     -32.11360000     -73.23020000
C      -45.90300000     -32.12410000     -73.13860000
C      -46.48620000     -31.47590000     -72.05270000
C      -45.77820000     -30.89700000     -70.96700000
C      -44.39550000     -30.91180000     -71.08230000
C      -43.74440000     -31.42800000     -72.28120000
H      -43.90040000     -32.64760000     -73.91790000
H      -47.60180000     -31.34220000     -71.94370000
H      -43.84330000     -30.57390000     -70.29100000
H      -42.64990000     -31.29060000     -72.41460000
C      -46.39480000     -30.27200000     -69.75220000
H      -47.39750000     -29.88220000     -69.99390000
H      -45.86330000     -29.36570000     -69.38940000
C      -46.87400000     -32.66260000     -74.19230000
H      -47.84910000     -32.10140000     -74.03240000
H      -46.57770000     -32.29150000     -75.18150000
S      -46.56260000     -31.35360000     -68.23350000
S      -47.35280000     -34.46380000     -74.19040000
C      -47.11440000     -32.87350000     -69.08920000
H      -48.15280000     -33.24410000     -68.82360000
H      -47.15230000     -32.68970000     -70.15420000
C      -47.86180000     -34.66260000     -72.42330000
H      -48.88210000     -34.95210000     -72.34550000
H      -47.67490000     -33.62910000     -71.97370000
C      -46.97960000     -35.79830000     -71.67670000
H      -47.32910000     -35.92160000     -70.61420000
H      -47.28810000     -36.70990000     -72.16670000
C      -46.19270000     -34.04840000     -68.77210000
H      -46.73010000     -34.94900000     -69.06870000
H      -46.03110000     -34.13170000     -67.64120000
C      -44.83470000     -34.11910000     -69.46600000
C      -43.70190000     -33.61020000     -68.94960000
C      -44.64160000     -34.68290000     -70.76010000
H      -43.56720000     -33.05280000     -67.97700000
C      -43.33490000     -34.57390000     -71.21420000
C      -45.49790000     -35.49630000     -71.69850000
C      -44.77470000     -35.86220000     -72.81480000
S      -42.32370000     -33.78260000     -70.04640000
S      -43.12960000     -35.32520000     -72.71520000
H      -45.15620000     -36.42080000     -73.63740000
