40
Properties=species:S:1:pos:R:3 #=T CELL(abcABC):=T 1.889726e+02=T 90.00000=T Traj:=T positionsangstrom=T Step:=T 0=T Bead:=T pbc="F F F"
C      -46.14880000     -31.51500000     -68.59290000
C      -44.78450000     -31.59910000     -68.29880000
C      -44.15420000     -32.83880000     -68.00970000
C      -44.97650000     -33.98210000     -67.99540000
C      -46.38140000     -33.94570000     -68.26070000
C      -46.93840000     -32.67960000     -68.53910000
H      -46.59470000     -30.51540000     -68.83210000
H      -43.03730000     -32.88660000     -68.06070000
H      -46.98510000     -34.78990000     -68.36310000
H      -47.89630000     -32.66370000     -68.96190000
C      -44.30480000     -35.32660000     -67.93140000
H      -45.04520000     -36.14140000     -67.76740000
H      -43.51000000     -35.44920000     -67.21980000
C      -43.78380000     -30.48040000     -68.54190000
H      -44.15710000     -29.49690000     -68.42300000
H      -42.88800000     -30.68650000     -67.91010000
S      -43.47690000     -35.60950000     -69.65710000
S      -42.96640000     -30.47890000     -70.22730000
C      -44.94400000     -35.62990000     -70.68110000
H      -45.60420000     -36.45470000     -70.55690000
H      -45.53760000     -34.73910000     -70.61200000
C      -44.31080000     -30.78600000     -71.50200000
H      -44.04930000     -30.19210000     -72.34760000
H      -45.24780000     -30.36710000     -71.10760000
C      -44.44920000     -32.29790000     -71.93490000
H      -43.50260000     -32.47760000     -72.49240000
H      -44.45790000     -32.89460000     -71.04650000
C      -44.41130000     -35.64880000     -72.14340000
H      -44.07750000     -36.67730000     -72.31380000
H      -43.51580000     -34.90620000     -72.29010000
C      -45.45930000     -35.30680000     -73.14910000
C      -46.26940000     -36.20000000     -73.81010000
C      -45.82230000     -33.92050000     -73.45040000
H      -46.14580000     -37.28080000     -73.71830000
C      -46.82060000     -33.90470000     -74.39900000
C      -45.53720000     -32.60030000     -72.92020000
C      -46.31970000     -31.60760000     -73.52920000
S      -47.42810000     -35.40340000     -74.88950000
S      -47.46650000     -32.31240000     -74.62070000
H      -46.37760000     -30.57630000     -73.27430000
