40
Properties=species:S:1:pos:R:3 #=T CELL(abcABC):=T 1.889726e+02=T 90.00000=T Traj:=T positionsangstrom=T Step:=T 0=T Bead:=T pbc="F F F"
C      -46.61510000     -31.48350000     -68.37500000
C      -45.22600000     -31.40570000     -68.62990000
C      -44.43230000     -32.50020000     -68.20150000
C      -44.91680000     -33.70890000     -67.73540000
C      -46.34580000     -33.72910000     -67.45240000
C      -47.19890000     -32.62910000     -67.77660000
H      -47.25700000     -30.56210000     -68.64650000
H      -43.35400000     -32.27010000     -68.28460000
H      -46.82690000     -34.66790000     -67.05870000
H      -48.29030000     -32.69710000     -67.62650000
C      -44.12530000     -34.98860000     -67.55590000
H      -44.71350000     -35.67690000     -66.97120000
H      -43.19800000     -34.93090000     -67.06590000
C      -44.65950000     -30.13950000     -69.11370000
H      -45.37330000     -29.47440000     -69.50470000
H      -44.24650000     -29.59260000     -68.32520000
S      -43.72180000     -35.65870000     -69.24730000
S      -43.24790000     -30.32750000     -70.28260000
C      -45.24660000     -35.53670000     -70.32020000
H      -45.91920000     -36.39770000     -70.07530000
H      -45.87570000     -34.63350000     -70.13340000
C      -44.09830000     -30.84100000     -71.81590000
H      -43.38450000     -30.80860000     -72.64690000
H      -44.85710000     -30.12830000     -72.11260000
C      -44.78760000     -32.25590000     -71.73430000
H      -44.03970000     -32.98360000     -71.44260000
H      -45.50300000     -32.15350000     -70.95210000
C      -44.63230000     -35.72720000     -71.71840000
H      -44.49020000     -36.79860000     -71.86660000
H      -43.72260000     -35.17500000     -71.80150000
C      -45.49680000     -35.35560000     -72.92340000
C      -46.17440000     -36.32250000     -73.72170000
C      -45.80840000     -34.05080000     -73.35250000
H      -45.97870000     -37.38010000     -73.64180000
C      -46.54450000     -34.04430000     -74.57130000
C      -45.47030000     -32.68920000     -73.04030000
C      -45.80090000     -31.79030000     -74.03170000
S      -46.97060000     -35.71830000     -75.14930000
S      -46.60300000     -32.56730000     -75.42170000
H      -45.85830000     -30.75720000     -73.96870000
