40
Properties=species:S:1:pos:R:3 #=T CELL(abcABC):=T 1.889726e+02=T 90.00000=T Traj:=T positionsangstrom=T Step:=T 0=T Bead:=T pbc="F F F"
C      -45.46690000     -32.26670000     -67.68740000
C      -44.64440000     -32.26870000     -68.79630000
C      -44.30670000     -33.56690000     -69.30870000
C      -44.95610000     -34.70560000     -68.82450000
C      -45.72700000     -34.69860000     -67.65820000
C      -45.95530000     -33.44270000     -67.06050000
H      -45.70700000     -31.33830000     -67.11340000
H      -43.63660000     -33.61530000     -70.18010000
H      -46.26370000     -35.54460000     -67.24820000
H      -46.61240000     -33.32780000     -66.14470000
C      -44.76510000     -35.93110000     -69.75920000
H      -44.26810000     -36.87450000     -69.40630000
H      -44.29850000     -35.54830000     -70.58880000
C      -44.19810000     -31.11330000     -69.53920000
H      -43.73420000     -30.38430000     -68.85000000
H      -43.51530000     -31.38690000     -70.32810000
S      -46.39750000     -36.54090000     -70.40550000
S      -45.64830000     -30.14980000     -70.11620000
C      -47.39940000     -35.11430000     -70.83500000
H      -48.41450000     -35.28410000     -70.42160000
H      -46.97120000     -34.23220000     -70.35380000
C      -46.71060000     -31.39590000     -70.83100000
H      -47.70080000     -31.26220000     -70.40640000
H      -46.31080000     -32.44750000     -70.74670000
C      -46.89760000     -31.21050000     -72.42730000
H      -47.84720000     -31.59970000     -72.63080000
H      -46.99420000     -30.17330000     -72.73190000
C      -47.45030000     -34.88720000     -72.37030000
H      -48.16070000     -34.09080000     -72.55370000
H      -47.85330000     -35.86280000     -72.76670000
C      -46.09790000     -34.57580000     -72.98910000
C      -45.24760000     -35.62370000     -73.29700000
C      -45.51240000     -33.27270000     -73.31290000
H      -45.44140000     -36.62470000     -72.96380000
C      -44.17510000     -33.42850000     -73.71310000
C      -45.78410000     -31.83840000     -73.21210000
C      -44.72280000     -31.06330000     -73.70870000
S      -43.67020000     -35.04100000     -73.88780000
S      -43.42540000     -32.01170000     -74.25220000
H      -44.71080000     -29.93490000     -73.62140000
