40
Properties=species:S:1:pos:R:3 #=T CELL(abcABC):=T 1.889726e+02=T 90.00000=T Traj:=T positionsangstrom=T Step:=T 0=T Bead:=T pbc="F F F"
C      -46.13950000     -31.58410000     -68.61220000
C      -44.75590000     -31.63920000     -68.40540000
C      -44.09340000     -32.83580000     -68.09260000
C      -44.89320000     -34.00180000     -68.02010000
C      -46.26290000     -33.95930000     -68.20430000
C      -46.88620000     -32.74820000     -68.53610000
H      -46.62180000     -30.50400000     -68.95540000
H      -42.97400000     -32.88770000     -67.99060000
H      -46.86160000     -34.89500000     -68.09350000
H      -48.00700000     -32.74680000     -68.61840000
C      -44.20880000     -35.29950000     -67.93850000
H      -44.93480000     -36.09730000     -67.81560000
H      -43.32540000     -35.42240000     -67.31280000
C      -43.93980000     -30.40160000     -68.65750000
H      -44.49000000     -29.50660000     -68.83560000
H      -43.26460000     -30.11460000     -67.83620000
S      -43.44320000     -35.71870000     -69.60640000
S      -42.90900000     -30.57470000     -70.13250000
C      -44.95490000     -35.68840000     -70.80170000
H      -45.71280000     -36.44470000     -70.52770000
H      -45.48370000     -34.68710000     -70.57140000
C      -44.14600000     -30.90850000     -71.55480000
H      -43.54480000     -30.54790000     -72.40360000
H      -45.04170000     -30.27590000     -71.42240000
C      -44.63140000     -32.38930000     -71.73120000
H      -43.84990000     -33.15610000     -71.84600000
H      -45.07780000     -32.65920000     -70.75010000
C      -44.50960000     -35.76120000     -72.27020000
H      -44.31720000     -36.80040000     -72.56870000
H      -43.61310000     -35.17870000     -72.33530000
C      -45.59070000     -35.25360000     -73.18390000
C      -46.31450000     -36.15430000     -73.91440000
C      -46.00580000     -33.88600000     -73.36840000
H      -45.95260000     -37.15940000     -74.07940000
C      -47.04800000     -33.80210000     -74.27220000
C      -45.60200000     -32.61140000     -72.84690000
C      -46.21270000     -31.50370000     -73.44720000
S      -47.43920000     -35.38430000     -74.97930000
S      -47.39070000     -32.05710000     -74.61090000
H      -45.99140000     -30.43170000     -73.41650000
