40
Properties=species:S:1:pos:R:3 #=T CELL(abcABC):=T 1.889726e+02=T 90.00000=T Traj:=T positionsangstrom=T Step:=T 0=T Bead:=T pbc="F F F"
C      -45.92010000     -31.46900000     -67.96910000
C      -44.61000000     -31.66550000     -68.39900000
C      -44.06720000     -32.97310000     -68.44080000
C      -44.83800000     -34.09020000     -68.08090000
C      -46.17040000     -33.83850000     -67.70910000
C      -46.73330000     -32.60400000     -67.73300000
H      -46.45020000     -30.59530000     -68.04230000
H      -43.10040000     -33.09230000     -68.80730000
H      -46.69410000     -34.72650000     -67.56040000
H      -47.71410000     -32.43770000     -67.36590000
C      -44.30410000     -35.47050000     -68.06290000
H      -45.02230000     -36.16290000     -67.48200000
H      -43.38990000     -35.52450000     -67.41030000
C      -43.76760000     -30.48920000     -68.86800000
H      -44.39380000     -29.71800000     -69.06140000
H      -43.12290000     -30.18500000     -68.01400000
S      -43.74700000     -36.18430000     -69.62890000
S      -42.66640000     -30.64650000     -70.30790000
C      -44.98060000     -35.68490000     -70.91440000
H      -45.78330000     -36.31280000     -70.82940000
H      -45.28030000     -34.65040000     -70.72570000
C      -43.84710000     -30.86550000     -71.77060000
H      -43.19910000     -30.80890000     -72.63930000
H      -44.51790000     -30.00680000     -71.70020000
C      -44.62550000     -32.23660000     -71.71350000
H      -43.70780000     -32.87370000     -71.84990000
H      -45.11370000     -32.33350000     -70.70520000
C      -44.40930000     -35.67030000     -72.36030000
H      -43.97530000     -36.57910000     -72.71650000
H      -43.55770000     -34.94270000     -72.30140000
C      -45.52180000     -35.15280000     -73.29100000
C      -46.24790000     -35.98500000     -74.18050000
C      -46.06910000     -33.78400000     -73.39040000
H      -46.08400000     -36.99720000     -74.28330000
C      -47.13780000     -33.70000000     -74.30610000
C      -45.68030000     -32.49510000     -72.80840000
C      -46.39140000     -31.51420000     -73.32620000
S      -47.52160000     -35.24640000     -75.08460000
S      -47.62390000     -31.96910000     -74.53030000
H      -46.38470000     -30.47470000     -73.15810000
