40
Properties=species:S:1:pos:R:3 #=T CELL(abcABC):=T 1.889726e+02=T 90.00000=T Traj:=T positionsangstrom=T Step:=T 0=T Bead:=T pbc="F F F"
C      -45.22600000     -31.41300000     -67.72160000
C      -44.00640000     -31.72940000     -68.36180000
C      -43.64480000     -33.10830000     -68.40440000
C      -44.51620000     -34.08080000     -67.88510000
C      -45.61810000     -33.69060000     -67.12570000
C      -46.04020000     -32.36740000     -67.04250000
H      -45.61030000     -30.44340000     -67.71200000
H      -42.80540000     -33.34610000     -68.94030000
H      -46.25180000     -34.47680000     -66.73380000
H      -46.96950000     -32.02680000     -66.65190000
C      -44.05180000     -35.50470000     -67.94130000
H      -44.66270000     -36.17610000     -67.39460000
H      -43.00850000     -35.57940000     -67.44040000
C      -43.14760000     -30.62580000     -68.87430000
H      -43.46160000     -29.57600000     -68.65910000
H      -42.16450000     -30.66260000     -68.53070000
S      -43.74690000     -36.04000000     -69.76240000
S      -42.81590000     -30.70550000     -70.73050000
C      -45.37050000     -35.78400000     -70.57290000
H      -46.11540000     -36.61520000     -70.43750000
H      -45.83900000     -34.80610000     -70.32670000
C      -44.42430000     -30.83050000     -71.59290000
H      -44.23490000     -30.62550000     -72.65220000
H      -45.14940000     -30.06420000     -71.16420000
C      -44.83490000     -32.30430000     -71.77950000
H      -43.92790000     -32.89290000     -72.05710000
H      -45.18210000     -32.77310000     -70.85210000
C      -45.04210000     -35.73770000     -72.10290000
H      -44.56860000     -36.64930000     -72.40990000
H      -44.31340000     -34.86520000     -72.14940000
C      -46.15280000     -35.25300000     -73.07190000
C      -46.80970000     -36.01660000     -73.99380000
C      -46.33830000     -33.89720000     -73.38480000
H      -46.91310000     -37.13100000     -73.90560000
C      -47.15350000     -33.64660000     -74.48910000
C      -45.89830000     -32.59140000     -72.86940000
C      -46.38860000     -31.53680000     -73.60770000
S      -47.65000000     -35.08670000     -75.24430000
S      -47.59190000     -32.02730000     -74.85640000
H      -46.32820000     -30.53000000     -73.31180000
