40
Properties=species:S:1:pos:R:3 #=T CELL(abcABC):=T 1.889726e+02=T 90.00000=T Traj:=T positionsangstrom=T Step:=T 0=T Bead:=T pbc="F F F"
C      -46.24980000     -31.53460000     -68.47090000
C      -44.86570000     -31.57410000     -68.57940000
C      -44.12590000     -32.77270000     -68.21490000
C      -44.84050000     -33.99260000     -68.10050000
C      -46.26390000     -33.94800000     -68.06910000
C      -46.97280000     -32.78570000     -68.28510000
H      -46.76720000     -30.49920000     -68.73700000
H      -43.06300000     -32.84370000     -68.14080000
H      -46.72950000     -34.97170000     -67.90360000
H      -48.09640000     -32.68950000     -68.13320000
C      -44.08100000     -35.28010000     -68.01270000
H      -44.57600000     -36.02490000     -67.34920000
H      -43.20930000     -35.04090000     -67.31620000
C      -44.03500000     -30.34540000     -68.89040000
H      -44.73900000     -29.45850000     -69.04270000
H      -43.55680000     -30.10590000     -68.00200000
S      -43.36170000     -35.89850000     -69.55940000
S      -42.83100000     -30.71600000     -70.28540000
C      -44.88730000     -35.88560000     -70.69920000
H      -45.38240000     -36.82480000     -70.43490000
H      -45.43160000     -35.06790000     -70.34500000
C      -44.11420000     -30.96840000     -71.57440000
H      -43.69620000     -30.60110000     -72.52640000
H      -44.95760000     -30.32340000     -71.46460000
C      -44.58800000     -32.42640000     -71.63120000
H      -43.79420000     -33.20430000     -71.75930000
H      -45.14630000     -32.69240000     -70.66620000
C      -44.56670000     -35.68720000     -72.21500000
H      -44.14360000     -36.68300000     -72.59100000
H      -43.60750000     -35.15670000     -72.26960000
C      -45.67380000     -35.27490000     -73.16840000
C      -46.39360000     -36.07500000     -73.97880000
C      -46.07890000     -33.87150000     -73.27730000
H      -46.38380000     -37.14520000     -74.08430000
C      -46.94020000     -33.70520000     -74.36030000
C      -45.65390000     -32.59160000     -72.69550000
C      -46.33210000     -31.51280000     -73.26920000
S      -47.47720000     -35.17850000     -75.04840000
S      -47.32310000     -32.00840000     -74.62090000
H      -46.22880000     -30.39930000     -73.07480000
