40
Properties=species:S:1:pos:R:3 #=T CELL(abcABC):=T 1.889726e+02=T 90.00000=T Traj:=T positionsangstrom=T Step:=T 0=T Bead:=T pbc="F F F"
C      -42.71680000     -37.14700000     -71.26940000
C      -44.07930000     -36.70370000     -71.40810000
C      -44.41790000     -35.88040000     -72.50510000
C      -43.41290000     -35.48140000     -73.38270000
C      -42.08920000     -35.87680000     -73.23810000
C      -41.74030000     -36.76340000     -72.18860000
H      -42.46990000     -37.85980000     -70.49310000
H      -45.51360000     -35.78240000     -72.65650000
H      -41.33880000     -35.59960000     -73.98480000
H      -40.74510000     -37.17570000     -71.97060000
C      -43.67460000     -34.52130000     -74.52110000
H      -43.24370000     -35.01790000     -75.45740000
H      -43.10140000     -33.52600000     -74.43890000
C      -45.12320000     -37.07950000     -70.40760000
H      -46.17080000     -36.69790000     -70.72480000
H      -45.06560000     -38.10360000     -70.20610000
S      -45.49060000     -34.03860000     -74.87140000
S      -44.83120000     -36.32610000     -68.80130000
C      -45.38020000     -32.36460000     -74.03510000
H      -44.77830000     -31.57020000     -74.57170000
H      -46.40340000     -31.99460000     -74.09270000
C      -45.10820000     -34.46670000     -68.95460000
H      -44.13750000     -33.93440000     -69.16510000
H      -45.32940000     -34.15430000     -67.93900000
C      -46.35590000     -34.07610000     -69.79600000
H      -46.35680000     -34.29080000     -70.88950000
H      -47.20750000     -34.67740000     -69.42170000
C      -44.80080000     -32.30210000     -72.55050000
H      -43.79600000     -32.01430000     -72.56220000
H      -45.01410000     -33.14120000     -71.98040000
C      -45.61430000     -31.24130000     -71.75240000
C      -45.71520000     -29.96200000     -72.20910000
C      -46.28080000     -31.43010000     -70.47510000
H      -45.37610000     -29.55150000     -73.16110000
C      -46.74400000     -30.17170000     -70.06790000
C      -46.68700000     -32.55770000     -69.69270000
C      -47.57780000     -32.09630000     -68.66490000
S      -46.46080000     -28.82860000     -71.16640000
S      -47.81060000     -30.33610000     -68.69920000
H      -47.89430000     -32.69900000     -67.86010000
