40
Properties=species:S:1:pos:R:3 #=T CELL(abcABC):=T 1.889726e+02=T 90.00000=T Traj:=T positionsangstrom=T Step:=T 0=T Bead:=T pbc="F F F"
C      -45.23680000     -31.41840000     -67.78690000
C      -44.00950000     -31.73720000     -68.44000000
C      -43.68410000     -33.10080000     -68.51310000
C      -44.55670000     -34.04940000     -67.94990000
C      -45.69870000     -33.69770000     -67.26690000
C      -45.95840000     -32.34160000     -67.08690000
H      -45.41500000     -30.34570000     -67.73430000
H      -42.80140000     -33.48330000     -68.99490000
H      -46.34250000     -34.41580000     -66.74770000
H      -46.74350000     -32.03560000     -66.44350000
C      -44.17230000     -35.51100000     -68.02240000
H      -45.06920000     -36.03100000     -67.68800000
H      -43.31850000     -35.83120000     -67.39160000
C      -43.18130000     -30.60470000     -68.99540000
H      -43.82200000     -29.74700000     -68.78820000
H      -42.26240000     -30.32710000     -68.40000000
S      -43.84930000     -36.17920000     -69.69930000
S      -42.63820000     -30.69430000     -70.75610000
C      -45.41630000     -35.85760000     -70.63530000
H      -46.04080000     -36.75990000     -70.41890000
H      -45.83020000     -34.98650000     -70.23340000
C      -44.29370000     -30.93180000     -71.61130000
H      -44.18390000     -30.29810000     -72.48590000
H      -45.00380000     -30.52940000     -70.92320000
C      -44.61160000     -32.37720000     -72.00840000
H      -43.74650000     -32.66970000     -72.57610000
H      -44.72500000     -32.94800000     -71.08860000
C      -45.07640000     -35.94030000     -72.14630000
H      -45.04800000     -37.01060000     -72.42710000
H      -44.11070000     -35.55590000     -72.38200000
C      -46.01590000     -35.22730000     -73.09470000
C      -46.70770000     -36.04040000     -73.94190000
C      -46.32350000     -33.77090000     -73.37060000
H      -46.64360000     -37.10470000     -73.87380000
C      -47.21790000     -33.56460000     -74.39650000
C      -45.89800000     -32.48340000     -72.79680000
C      -46.46850000     -31.43610000     -73.47090000
S      -47.74210000     -35.09680000     -75.10750000
S      -47.62630000     -31.86010000     -74.75060000
H      -46.40330000     -30.41470000     -73.15190000
