40
Properties=species:S:1:pos:R:3 #=T CELL(abcABC):=T 1.889726e+02=T 90.00000=T Traj:=T positionsangstrom=T Step:=T 0=T Bead:=T pbc="F F F"
C      -44.69480000     -31.38580000     -72.76190000
C      -45.73740000     -30.91240000     -71.95000000
C      -45.49720000     -30.84620000     -70.50670000
C      -44.33580000     -31.44080000     -69.88610000
C      -43.41080000     -32.03200000     -70.74670000
C      -43.61610000     -31.98030000     -72.14490000
H      -44.93540000     -31.40980000     -73.85110000
H      -46.25180000     -30.31270000     -69.87620000
H      -42.71880000     -32.70050000     -70.33820000
H      -42.86360000     -32.50120000     -72.80190000
C      -44.01330000     -31.56620000     -68.40830000
H      -44.35740000     -30.70880000     -67.74750000
H      -42.93330000     -31.53140000     -68.31510000
C      -47.07540000     -30.47890000     -72.46920000
H      -47.64140000     -29.98580000     -71.66360000
H      -47.08650000     -29.85940000     -73.33840000
S      -44.41290000     -33.22780000     -67.73720000
S      -48.20130000     -31.85060000     -72.93400000
C      -46.01820000     -33.72770000     -68.46120000
H      -46.85430000     -33.76580000     -67.75200000
H      -46.29030000     -32.96620000     -69.16160000
C      -48.31680000     -32.97770000     -71.45970000
H      -49.31630000     -32.91850000     -70.99350000
H      -47.64190000     -32.57570000     -70.74810000
C      -47.84940000     -34.37450000     -71.78260000
H      -47.86020000     -35.03520000     -70.91350000
H      -48.52660000     -34.90420000     -72.54350000
C      -45.93520000     -35.11890000     -69.13520000
H      -46.91870000     -35.53700000     -69.23900000
H      -45.52580000     -35.82290000     -68.39640000
C      -44.96790000     -35.25860000     -70.33960000
C      -43.72250000     -35.77810000     -70.19590000
C      -45.30740000     -34.91680000     -71.75070000
H      -43.36460000     -35.97020000     -69.22330000
C      -44.19470000     -35.00830000     -72.56760000
C      -46.52060000     -34.50790000     -72.41090000
C      -46.33260000     -34.15410000     -73.71750000
S      -42.78690000     -35.67620000     -71.73760000
S      -44.67680000     -34.68020000     -74.17050000
H      -47.00940000     -34.14890000     -74.48200000
