40
Properties=species:S:1:pos:R:3 #=T CELL(abcABC):=T 1.889726e+02=T 90.00000=T Traj:=T positionsangstrom=T Step:=T 0=T Bead:=T pbc="F F F"
C      -48.18620000     -34.82710000     -74.20970000
C      -47.13330000     -35.06350000     -73.32080000
C      -45.84740000     -34.77950000     -73.67350000
C      -45.53680000     -34.01870000     -74.82160000
C      -46.57190000     -33.71920000     -75.74330000
C      -47.87960000     -34.07990000     -75.38610000
H      -49.20420000     -35.12510000     -73.98250000
H      -45.09530000     -35.20010000     -72.99090000
H      -46.29420000     -33.14550000     -76.66980000
H      -48.70370000     -33.98800000     -76.05990000
C      -44.08330000     -33.82670000     -75.23940000
H      -43.91040000     -33.53310000     -76.29490000
H      -43.53190000     -34.78770000     -74.98690000
C      -47.42990000     -35.58180000     -71.93220000
H      -47.96720000     -36.54380000     -71.90480000
H      -46.47040000     -35.84380000     -71.35760000
S      -43.30200000     -32.45510000     -74.25680000
S      -48.57580000     -34.56370000     -70.97610000
C      -43.28890000     -32.87220000     -72.48260000
H      -44.13100000     -33.55440000     -72.29260000
H      -42.42110000     -33.39190000     -72.24470000
C      -47.97180000     -32.85740000     -71.14860000
H      -48.58150000     -32.18900000     -70.49510000
H      -48.33970000     -32.45780000     -72.09530000
C      -46.49920000     -32.48290000     -70.89750000
H      -45.88870000     -33.13860000     -71.62370000
H      -46.51830000     -31.49170000     -71.30600000
C      -43.26240000     -31.68180000     -71.54370000
H      -44.19080000     -31.12050000     -71.83120000
H      -42.28490000     -31.08700000     -71.72710000
C      -43.27570000     -32.10270000     -70.12030000
C      -42.10830000     -32.16340000     -69.39150000
C      -44.39040000     -32.49570000     -69.32860000
H      -41.11020000     -32.02840000     -69.88180000
C      -43.99200000     -32.87940000     -68.04570000
C      -45.87370000     -32.73540000     -69.50230000
C      -46.45830000     -33.08960000     -68.32390000
S      -42.25120000     -32.80230000     -67.80280000
S      -45.29650000     -33.52670000     -67.06250000
H      -47.47970000     -33.32710000     -68.03970000
