40
Properties=species:S:1:pos:R:3 #=T CELL(abcABC):=T 1.889726e+02=T 90.00000=T Traj:=T positionsangstrom=T Step:=T 0=T Bead:=T pbc="F F F"
C      -44.70830000     -31.09240000     -72.62310000
C      -45.70650000     -30.70460000     -71.66350000
C      -45.46490000     -30.90280000     -70.32170000
C      -44.28770000     -31.56510000     -69.93780000
C      -43.26380000     -31.86700000     -70.88660000
C      -43.50430000     -31.61380000     -72.24240000
H      -44.92560000     -31.01400000     -73.67350000
H      -46.22670000     -30.70670000     -69.57250000
H      -42.28250000     -32.22620000     -70.61250000
H      -42.72550000     -31.71320000     -72.94070000
C      -44.03300000     -31.79940000     -68.37250000
H      -44.76310000     -31.31350000     -67.76200000
H      -43.04100000     -31.43240000     -68.12970000
C      -47.06380000     -30.19670000     -72.01680000
H      -47.50180000     -29.64730000     -71.16960000
H      -47.14480000     -29.54310000     -72.87980000
S      -43.97780000     -33.57240000     -67.89970000
S      -48.16820000     -31.61630000     -72.50980000
C      -45.72800000     -33.99050000     -68.30050000
H      -46.34160000     -34.12560000     -67.37170000
H      -46.23150000     -33.09320000     -68.80490000
C      -48.08490000     -32.97300000     -71.22840000
H      -49.00190000     -32.87410000     -70.64170000
H      -47.20680000     -32.88740000     -70.53090000
C      -48.07030000     -34.29830000     -71.91880000
H      -48.17730000     -35.09350000     -71.16720000
H      -48.92900000     -34.40750000     -72.68510000
C      -45.82490000     -35.18850000     -69.20340000
H      -46.86410000     -35.31770000     -69.42480000
H      -45.63390000     -36.10160000     -68.63410000
C      -45.03720000     -35.23590000     -70.45730000
C      -43.79870000     -35.81330000     -70.46650000
C      -45.49060000     -34.89500000     -71.76750000
H      -43.24420000     -35.93720000     -69.50870000
C      -44.43890000     -34.97040000     -72.69840000
C      -46.71310000     -34.53410000     -72.43770000
C      -46.56510000     -34.43150000     -73.76960000
S      -42.90100000     -35.76030000     -72.01760000
S      -44.95400000     -34.66250000     -74.34110000
H      -47.46990000     -34.28100000     -74.41530000
