40
Properties=species:S:1:pos:R:3 #=T CELL(abcABC):=T 1.889726e+02=T 90.00000=T Traj:=T positionsangstrom=T Step:=T 0=T Bead:=T pbc="F F F"
C      -45.30460000     -31.47470000     -68.30790000
C      -44.10480000     -31.89900000     -68.89750000
C      -43.83980000     -33.26700000     -68.90180000
C      -44.64560000     -34.18020000     -68.24630000
C      -45.86380000     -33.75080000     -67.66820000
C      -46.16850000     -32.36790000     -67.69630000
H      -45.48370000     -30.42700000     -68.24570000
H      -42.92370000     -33.57010000     -69.45160000
H      -46.63350000     -34.35740000     -67.20910000
H      -47.12090000     -32.05210000     -67.14030000
C      -44.18660000     -35.61470000     -68.08650000
H      -44.91720000     -36.18640000     -67.53070000
H      -43.22330000     -35.69740000     -67.52730000
C      -42.91170000     -30.97800000     -69.23010000
H      -43.10960000     -29.94910000     -68.84580000
H      -42.03810000     -31.29690000     -68.67620000
S      -43.86210000     -36.46870000     -69.70910000
S      -42.34840000     -30.97800000     -70.95450000
C      -45.29010000     -35.87840000     -70.74300000
H      -46.13870000     -36.59750000     -70.74580000
H      -45.79830000     -35.07680000     -70.19470000
C      -43.81220000     -30.91140000     -71.97250000
H      -43.73090000     -30.23170000     -72.85410000
H      -44.71190000     -30.53310000     -71.39540000
C      -44.20830000     -32.31140000     -72.35080000
H      -43.46430000     -32.75170000     -73.05930000
H      -44.26590000     -33.02780000     -71.54020000
C      -44.87750000     -35.58230000     -72.22050000
H      -44.49280000     -36.52470000     -72.67120000
H      -43.93180000     -35.01670000     -72.30930000
C      -45.92490000     -34.96780000     -73.06470000
C      -46.95100000     -35.78660000     -73.50860000
C      -46.25320000     -33.52590000     -73.22850000
H      -46.97250000     -36.82510000     -73.41250000
C      -47.46050000     -33.39160000     -73.90940000
C      -45.54880000     -32.36050000     -72.97060000
C      -46.24140000     -31.30150000     -73.42350000
S      -48.26000000     -34.89290000     -74.30330000
S      -47.81460000     -31.69760000     -74.12370000
H      -46.02320000     -30.23940000     -73.37560000
