40
Properties=species:S:1:pos:R:3 #=T CELL(abcABC):=T 1.889726e+02=T 90.00000=T Traj:=T positionsangstrom=T Step:=T 0=T Bead:=T pbc="F F F"
C      -44.69090000     -31.16670000     -72.45700000
C      -45.65820000     -30.79170000     -71.53510000
C      -45.36670000     -30.90660000     -70.15640000
C      -44.15170000     -31.45390000     -69.72320000
C      -43.09150000     -31.72060000     -70.66440000
C      -43.41960000     -31.52230000     -72.00400000
H      -44.83340000     -31.04360000     -73.58300000
H      -46.14040000     -30.64290000     -69.51660000
H      -42.13640000     -32.08530000     -70.45490000
H      -42.67120000     -31.84940000     -72.70640000
C      -43.78610000     -31.78400000     -68.31460000
H      -44.46560000     -31.27920000     -67.55940000
H      -42.73740000     -31.46550000     -68.12300000
C      -47.04490000     -30.35490000     -71.90340000
H      -47.48800000     -29.83300000     -71.00750000
H      -46.98930000     -29.68800000     -72.76270000
S      -43.90020000     -33.58050000     -68.07330000
S      -48.21470000     -31.67090000     -72.53480000
C      -45.65600000     -34.06290000     -68.36510000
H      -46.06880000     -34.32310000     -67.39680000
H      -46.16580000     -33.23290000     -68.77650000
C      -48.13680000     -32.80430000     -71.04270000
H      -49.00200000     -32.60370000     -70.38850000
H      -47.23490000     -32.61330000     -70.51900000
C      -48.06480000     -34.21980000     -71.70440000
H      -48.10390000     -34.92960000     -70.91690000
H      -48.97820000     -34.48540000     -72.28110000
C      -45.78880000     -35.39730000     -69.23470000
H      -46.89290000     -35.52520000     -69.31360000
H      -45.47220000     -36.25040000     -68.62630000
C      -45.13870000     -35.38180000     -70.60570000
C      -43.79700000     -35.71310000     -70.57330000
C      -45.53860000     -34.97140000     -71.92860000
H      -43.24010000     -35.77940000     -69.66950000
C      -44.53820000     -35.11220000     -72.86730000
C      -46.79460000     -34.51500000     -72.52570000
C      -46.67650000     -34.22340000     -73.83270000
S      -43.09130000     -35.81510000     -72.17720000
S      -45.01210000     -34.54000000     -74.36820000
H      -47.47180000     -33.89100000     -74.49310000
