40
Properties=species:S:1:pos:R:3 #=T CELL(abcABC):=T 1.889726e+02=T 90.00000=T Traj:=T positionsangstrom=T Step:=T 0=T Bead:=T pbc="F F F"
C      -44.61080000     -31.35350000     -72.86600000
C      -45.79100000     -30.95090000     -72.22620000
C      -45.84300000     -31.07670000     -70.84270000
C      -44.71460000     -31.28860000     -70.03190000
C      -43.51590000     -31.61990000     -70.63400000
C      -43.44400000     -31.60050000     -72.05410000
H      -44.42570000     -31.38960000     -73.92400000
H      -46.82970000     -30.78280000     -70.41250000
H      -42.64770000     -31.92400000     -70.00720000
H      -42.52700000     -31.84920000     -72.54260000
C      -44.82380000     -31.38580000     -68.50400000
H      -45.75400000     -30.95000000     -68.08560000
H      -43.99010000     -30.85780000     -68.12520000
C      -47.08750000     -30.48530000     -72.86610000
H      -47.38800000     -29.58800000     -72.33910000
H      -47.04670000     -30.29350000     -73.95260000
S      -44.58120000     -33.11920000     -67.88450000
S      -48.51840000     -31.60750000     -72.62450000
C      -46.23270000     -33.77280000     -68.52250000
H      -46.93290000     -33.77550000     -67.62650000
H      -46.66980000     -32.95300000     -69.11440000
C      -48.01410000     -32.96540000     -71.45770000
H      -48.87720000     -32.95770000     -70.68770000
H      -47.17260000     -32.73180000     -70.80520000
C      -47.70580000     -34.39940000     -72.09960000
H      -47.81110000     -35.23010000     -71.41320000
H      -48.42520000     -34.54070000     -72.82560000
C      -45.95700000     -35.12140000     -69.17300000
H      -46.94710000     -35.47990000     -69.57310000
H      -45.73390000     -35.89080000     -68.37050000
C      -44.93120000     -35.14230000     -70.23490000
C      -43.61350000     -35.41080000     -69.92500000
C      -45.16340000     -35.01450000     -71.65830000
H      -43.14050000     -35.79760000     -68.93560000
C      -44.04220000     -35.34020000     -72.41630000
C      -46.27520000     -34.57680000     -72.53270000
C      -45.88990000     -34.55950000     -73.87830000
S      -42.63940000     -35.69030000     -71.40570000
S      -44.27200000     -35.19760000     -74.14010000
H      -46.60250000     -34.71970000     -74.69190000
