40
Properties=species:S:1:pos:R:3 #=T CELL(abcABC):=T 1.889726e+02=T 90.00000=T Traj:=T positionsangstrom=T Step:=T 0=T Bead:=T pbc="F F F"
C      -42.80060000     -34.80380000     -68.89970000
C      -44.18320000     -35.12680000     -68.84700000
C      -44.70290000     -35.90440000     -69.82460000
C      -43.92220000     -36.48370000     -70.83300000
C      -42.55180000     -36.21100000     -70.89820000
C      -42.03620000     -35.36250000     -69.93560000
H      -42.34640000     -34.21750000     -68.08520000
H      -45.73170000     -36.19040000     -69.71750000
H      -41.92770000     -36.75500000     -71.62200000
H      -40.97790000     -35.22880000     -70.11560000
C      -44.57620000     -37.40130000     -71.81860000
H      -44.56010000     -38.45400000     -71.45160000
H      -44.11520000     -37.51340000     -72.82510000
C      -45.05790000     -34.56320000     -67.71800000
H      -46.09740000     -34.92420000     -67.78220000
H      -44.75670000     -35.13430000     -66.81750000
S      -46.39810000     -37.13480000     -72.27750000
S      -44.84080000     -32.84710000     -67.31630000
C      -46.12210000     -35.57190000     -73.28840000
H      -45.04400000     -35.58840000     -73.48310000
H      -46.60760000     -35.61190000     -74.21110000
C      -44.85280000     -31.98920000     -68.92930000
H      -44.01300000     -32.35440000     -69.55550000
H      -44.61760000     -30.90330000     -68.65560000
C      -46.11650000     -32.05390000     -69.81300000
H      -46.37340000     -33.07130000     -70.10390000
H      -46.97170000     -31.82500000     -69.20260000
C      -46.40150000     -34.29740000     -72.47010000
H      -45.71980000     -34.31310000     -71.63600000
H      -47.41710000     -34.34260000     -71.97280000
C      -46.21590000     -32.92180000     -73.16230000
C      -46.14370000     -32.75020000     -74.52380000
C      -46.20300000     -31.60780000     -72.47320000
H      -46.28590000     -33.49650000     -75.26470000
C      -46.19370000     -30.58930000     -73.35750000
C      -46.13070000     -31.18140000     -71.09100000
C      -45.94680000     -29.80230000     -71.01940000
S      -46.24270000     -31.07810000     -75.02730000
S      -45.94730000     -28.99220000     -72.58780000
H      -45.96520000     -29.10720000     -70.20990000
