40
Properties=species:S:1:pos:R:3 #=T CELL(abcABC):=T 1.889726e+02=T 90.00000=T Traj:=T positionsangstrom=T Step:=T 0=T Bead:=T pbc="F F F"
C      -44.77800000     -31.35060000     -68.35960000
C      -43.66590000     -31.81470000     -69.03190000
C      -43.32350000     -33.16990000     -68.95590000
C      -44.14370000     -34.08380000     -68.30150000
C      -45.41280000     -33.61910000     -67.84170000
C      -45.69040000     -32.25620000     -67.82830000
H      -45.06410000     -30.25530000     -68.26080000
H      -42.37970000     -33.52540000     -69.40530000
H      -46.13350000     -34.37170000     -67.36580000
H      -46.60160000     -31.87660000     -67.40910000
C      -43.65770000     -35.48700000     -68.25530000
H      -44.37760000     -36.10510000     -67.68380000
H      -42.63410000     -35.62220000     -67.79830000
C      -42.94680000     -30.73200000     -69.77500000
H      -43.62330000     -29.90230000     -70.03520000
H      -42.15400000     -30.32850000     -69.12990000
S      -43.69480000     -36.23590000     -69.93570000
S      -42.09990000     -31.27400000     -71.31900000
C      -45.28600000     -35.53070000     -70.54430000
H      -46.18850000     -35.91500000     -69.98590000
H      -45.33360000     -34.45370000     -70.41580000
C      -43.50640000     -31.23070000     -72.49820000
H      -43.17620000     -31.27430000     -73.52110000
H      -44.14230000     -30.37550000     -72.20080000
C      -44.33600000     -32.53950000     -72.37170000
H      -43.70960000     -33.40520000     -72.79410000
H      -44.43370000     -32.72320000     -71.28460000
C      -45.29050000     -35.72390000     -72.02600000
H      -45.05170000     -36.80250000     -72.28160000
H      -44.42380000     -35.07740000     -72.38290000
C      -46.51820000     -35.13590000     -72.70750000
C      -47.58930000     -35.86920000     -73.04370000
C      -46.59570000     -33.72480000     -73.12940000
H      -47.89990000     -36.86660000     -72.65020000
C      -47.86940000     -33.41020000     -73.59410000
C      -45.71080000     -32.51890000     -72.99950000
C      -46.36600000     -31.36090000     -73.41740000
S      -48.83110000     -34.80530000     -73.82630000
S      -48.04880000     -31.75490000     -73.85520000
H      -46.06360000     -30.33180000     -73.45940000
