40
Properties=species:S:1:pos:R:3 #=T CELL(abcABC):=T 1.889726e+02=T 90.00000=T Traj:=T positionsangstrom=T Step:=T 0=T Bead:=T pbc="F F F"
C      -42.61820000     -34.93980000     -68.98330000
C      -44.01700000     -35.14820000     -68.89580000
C      -44.64490000     -35.89550000     -69.89170000
C      -43.94100000     -36.49580000     -70.89270000
C      -42.51900000     -36.39740000     -70.92430000
C      -41.87370000     -35.67840000     -69.94590000
H      -42.08830000     -34.21970000     -68.32070000
H      -45.69430000     -36.01770000     -69.73790000
H      -41.93560000     -36.86720000     -71.67510000
H      -40.79740000     -35.83140000     -69.94750000
C      -44.64470000     -37.39410000     -71.95400000
H      -44.52410000     -38.44040000     -71.68790000
H      -44.12300000     -37.19350000     -72.88690000
C      -44.90600000     -34.46460000     -67.93260000
H      -45.89300000     -34.49910000     -68.30380000
H      -44.88680000     -35.00880000     -66.97270000
S      -46.50700000     -37.06800000     -72.24430000
S      -44.45410000     -32.68810000     -67.42770000
C      -46.61820000     -35.51150000     -73.11890000
H      -45.95050000     -35.47900000     -73.96850000
H      -47.59840000     -35.30110000     -73.47870000
C      -44.79300000     -31.54880000     -68.80000000
H      -43.85710000     -31.29770000     -69.27610000
H      -45.11670000     -30.56640000     -68.39110000
C      -45.85250000     -32.07890000     -69.87290000
H      -45.65600000     -33.11050000     -70.19620000
H      -46.82860000     -31.98050000     -69.42170000
C      -46.11370000     -34.26680000     -72.26040000
H      -45.11490000     -34.51760000     -71.93540000
H      -46.81190000     -34.26030000     -71.38390000
C      -46.16610000     -32.99580000     -73.07230000
C      -46.32410000     -32.84180000     -74.42380000
C      -46.18640000     -31.63070000     -72.49470000
H      -46.53100000     -33.63160000     -75.14470000
C      -46.49840000     -30.64310000     -73.33570000
C      -45.87660000     -31.18900000     -71.11280000
C      -45.92170000     -29.83740000     -70.98040000
S      -46.48350000     -31.17840000     -75.01390000
S      -46.23190000     -29.04340000     -72.52090000
H      -45.90750000     -29.17190000     -70.17160000
