40
Properties=species:S:1:pos:R:3 #=T CELL(abcABC):=T 1.889726e+02=T 90.00000=T Traj:=T positionsangstrom=T Step:=T 0=T Bead:=T pbc="F F F"
C      -42.88710000     -34.92470000     -68.75610000
C      -44.27620000     -35.22340000     -68.61970000
C      -44.80020000     -36.07370000     -69.57500000
C      -44.01200000     -36.54320000     -70.67990000
C      -42.66560000     -36.01050000     -70.91300000
C      -42.06370000     -35.26230000     -69.88340000
H      -42.47710000     -34.24050000     -68.02620000
H      -45.80240000     -36.30870000     -69.54830000
H      -41.99460000     -36.17950000     -71.78090000
H      -41.01460000     -34.91420000     -69.94360000
C      -44.49150000     -37.46250000     -71.76680000
H      -44.61710000     -38.44050000     -71.29390000
H      -43.84480000     -37.45700000     -72.60570000
C      -45.11590000     -34.75250000     -67.46760000
H      -46.19350000     -35.05090000     -67.51310000
H      -44.65430000     -35.10150000     -66.52890000
S      -46.18940000     -37.02220000     -72.38220000
S      -45.09200000     -32.80040000     -67.41400000
C      -46.13630000     -35.42370000     -73.33340000
H      -45.16300000     -35.24730000     -73.88820000
H      -47.05080000     -35.29670000     -73.97290000
C      -44.81740000     -32.26140000     -69.20730000
H      -44.34310000     -33.02360000     -69.79710000
H      -44.16940000     -31.38960000     -69.19630000
C      -46.17160000     -31.85820000     -69.81060000
H      -46.82060000     -32.75470000     -69.96610000
H      -46.64290000     -31.17490000     -69.10690000
C      -46.26490000     -34.18750000     -72.33520000
H      -45.54320000     -34.21490000     -71.54340000
H      -47.27220000     -34.25520000     -71.92770000
C      -46.18840000     -32.91240000     -73.06170000
C      -46.43530000     -32.84120000     -74.44370000
C      -45.88080000     -31.62370000     -72.41200000
H      -46.58560000     -33.68430000     -75.06870000
C      -45.89050000     -30.58420000     -73.43540000
C      -45.97650000     -31.11080000     -71.06330000
C      -46.01850000     -29.70060000     -71.10360000
S      -46.12450000     -31.22310000     -75.06370000
S      -46.02180000     -28.99320000     -72.76120000
H      -46.16030000     -29.12350000     -70.22350000
