40
Properties=species:S:1:pos:R:3 #=T CELL(abcABC):=T 1.889726e+02=T 90.00000=T Traj:=T positionsangstrom=T Step:=T 0=T Bead:=T pbc="F F F"
C      -42.97500000     -34.63240000     -68.32690000
C      -44.35900000     -35.04680000     -68.40930000
C      -44.87560000     -35.99180000     -69.28760000
C      -43.99980000     -36.57310000     -70.25480000
C      -42.68670000     -36.16570000     -70.20470000
C      -42.14680000     -35.22980000     -69.26080000
H      -42.55690000     -33.90780000     -67.57180000
H      -45.93430000     -36.27110000     -69.11950000
H      -41.89860000     -36.58270000     -70.84210000
H      -41.10560000     -34.95140000     -69.39030000
C      -44.42380000     -37.48680000     -71.42400000
H      -44.57520000     -38.59640000     -71.06030000
H      -43.62430000     -37.54080000     -72.13410000
C      -45.44030000     -34.21750000     -67.62520000
H      -46.36940000     -34.63080000     -67.98630000
H      -45.31670000     -34.41020000     -66.52390000
S      -46.02800000     -37.11650000     -72.20660000
S      -45.27750000     -32.36620000     -67.76860000
C      -45.64020000     -35.61510000     -73.12070000
H      -44.57260000     -35.50270000     -73.41000000
H      -46.18780000     -35.56020000     -73.99160000
C      -45.30680000     -32.14360000     -69.55760000
H      -44.75860000     -32.98130000     -69.97800000
H      -44.73660000     -31.24440000     -69.70240000
C      -46.71030000     -31.98480000     -70.16350000
H      -47.26020000     -32.96490000     -70.21680000
H      -47.30770000     -31.34340000     -69.42160000
C      -45.93880000     -34.32870000     -72.39180000
H      -45.53550000     -34.15070000     -71.41100000
H      -47.08180000     -34.33600000     -72.21450000
C      -45.68040000     -33.02260000     -73.13450000
C      -45.23160000     -32.92670000     -74.46250000
C      -46.14680000     -31.69990000     -72.67230000
H      -45.11480000     -33.64110000     -75.16710000
C      -45.89200000     -30.71330000     -73.55340000
C      -46.72490000     -31.23010000     -71.43360000
C      -46.96520000     -29.92580000     -71.51250000
S      -45.30190000     -31.28690000     -75.06730000
S      -46.39670000     -29.20170000     -73.01270000
H      -47.35660000     -29.26390000     -70.75360000
