40
Properties=species:S:1:pos:R:3 #=T CELL(abcABC):=T 1.889726e+02=T 90.00000=T Traj:=T positionsangstrom=T Step:=T 0=T Bead:=T pbc="F F F"
C      -43.21980000     -34.55030000     -68.47900000
C      -44.56780000     -34.89890000     -68.54370000
C      -44.98100000     -35.93580000     -69.41460000
C      -44.09280000     -36.48390000     -70.32110000
C      -42.72070000     -36.12460000     -70.26140000
C      -42.31920000     -35.07480000     -69.39340000
H      -42.88020000     -33.76070000     -67.78900000
H      -46.02250000     -36.28640000     -69.42870000
H      -41.93790000     -36.60060000     -70.92560000
H      -41.33440000     -34.80190000     -69.21210000
C      -44.50850000     -37.73610000     -71.02170000
H      -44.88030000     -38.54850000     -70.46200000
H      -43.73810000     -38.03480000     -71.77210000
C      -45.47540000     -34.22140000     -67.55770000
H      -46.50500000     -34.44100000     -67.81360000
H      -45.35500000     -34.48120000     -66.52470000
S      -45.96450000     -37.20660000     -72.16440000
S      -45.23270000     -32.42500000     -67.56830000
C      -45.45470000     -35.59410000     -73.19680000
H      -44.41170000     -35.68150000     -73.55060000
H      -46.16490000     -35.71710000     -74.04270000
C      -45.25420000     -31.95180000     -69.43730000
H      -44.49640000     -32.56030000     -69.90800000
H      -44.87120000     -30.89770000     -69.55060000
C      -46.63860000     -32.06550000     -70.17100000
H      -46.72850000     -33.15820000     -70.38500000
H      -47.49710000     -31.77300000     -69.60440000
C      -45.79650000     -34.34280000     -72.39270000
H      -45.18540000     -34.38420000     -71.51560000
H      -46.80030000     -34.43080000     -71.98790000
C      -45.67160000     -33.05460000     -73.23740000
C      -45.18710000     -32.95740000     -74.55220000
C      -46.17780000     -31.77660000     -72.76130000
H      -44.71300000     -33.67100000     -75.11600000
C      -46.02980000     -30.73520000     -73.65180000
C      -46.57990000     -31.26470000     -71.44350000
C      -46.78610000     -29.93020000     -71.48430000
S      -45.14450000     -31.22650000     -75.08080000
S      -46.56920000     -29.18230000     -73.06610000
H      -46.95400000     -29.26150000     -70.63370000
