40
Properties=species:S:1:pos:R:3 #=T CELL(abcABC):=T 1.889726e+02=T 90.00000=T Traj:=T positionsangstrom=T Step:=T 0=T Bead:=T pbc="F F F"
C      -42.58650000     -31.58140000     -68.76710000
C      -42.93580000     -32.96050000     -68.87980000
C      -44.23640000     -33.33840000     -68.51590000
C      -45.12720000     -32.35640000     -68.07320000
C      -44.76140000     -30.99720000     -67.98040000
C      -43.45640000     -30.63300000     -68.28590000
H      -41.55270000     -31.37370000     -69.06600000
H      -44.60470000     -34.35750000     -68.64170000
H      -45.54940000     -30.28970000     -67.71410000
H      -43.07550000     -29.54750000     -68.40080000
C      -46.57800000     -32.64230000     -67.81660000
H      -46.82810000     -32.49320000     -66.77230000
H      -46.90580000     -33.59130000     -68.06970000
C      -41.87900000     -34.00010000     -69.37290000
H      -40.98030000     -33.90930000     -68.73690000
H      -42.25150000     -35.09240000     -69.29000000
S      -47.67750000     -31.37610000     -68.65240000
S      -41.26700000     -33.60270000     -71.04960000
C      -48.10590000     -32.04730000     -70.32230000
H      -48.86510000     -32.83160000     -70.19140000
H      -48.65660000     -31.26920000     -70.89460000
C      -42.51950000     -34.25650000     -72.29460000
H      -42.57670000     -35.32720000     -72.19480000
H      -42.01270000     -34.03890000     -73.24880000
C      -43.87210000     -33.59170000     -72.18550000
H      -44.39330000     -33.81300000     -71.25070000
H      -43.81270000     -32.50090000     -72.37600000
C      -46.94460000     -32.63500000     -71.09990000
H      -46.27800000     -33.21930000     -70.53950000
H      -46.23280000     -31.80000000     -71.46980000
C      -47.26690000     -33.50630000     -72.36130000
C      -48.50640000     -33.62640000     -72.87610000
C      -46.29540000     -34.26130000     -73.14350000
H      -49.33950000     -33.09900000     -72.58600000
C      -46.86980000     -34.96020000     -74.21180000
C      -44.80170000     -34.18970000     -73.26060000
C      -44.36070000     -34.92760000     -74.39210000
S      -48.54430000     -34.74650000     -74.32950000
S      -45.65590000     -35.65700000     -75.28020000
H      -43.38410000     -35.22240000     -74.69670000
