40
Properties=species:S:1:pos:R:3 #=T CELL(abcABC):=T 1.889726e+02=T 90.00000=T Traj:=T positionsangstrom=T Step:=T 0=T Bead:=T pbc="F F F"
C      -42.44870000     -31.70300000     -68.59970000
C      -42.91050000     -32.98930000     -68.85760000
C      -44.26180000     -33.24600000     -68.58960000
C      -45.07680000     -32.23450000     -68.12510000
C      -44.58840000     -30.90150000     -67.90220000
C      -43.25040000     -30.65720000     -68.06600000
H      -41.30910000     -31.56570000     -68.74120000
H      -44.57030000     -34.24800000     -68.62550000
H      -45.28610000     -30.20700000     -67.43600000
H      -42.70120000     -29.71690000     -67.77890000
C      -46.49360000     -32.52440000     -67.89830000
H      -46.81430000     -32.45640000     -66.80520000
H      -46.82220000     -33.49260000     -68.35100000
C      -41.99010000     -34.02180000     -69.35120000
H      -41.21320000     -34.23820000     -68.73760000
H      -42.50330000     -35.06680000     -69.42980000
S      -47.64540000     -31.30830000     -68.86540000
S      -41.27340000     -33.63010000     -71.05630000
C      -47.94570000     -32.33450000     -70.33120000
H      -48.63410000     -33.11340000     -70.11760000
H      -48.43340000     -31.62140000     -71.08660000
C      -42.50270000     -34.49290000     -72.13410000
H      -42.88110000     -35.44350000     -71.67330000
H      -41.99570000     -34.74810000     -73.05560000
C      -43.76850000     -33.63490000     -72.47260000
H      -44.16230000     -33.37270000     -71.48970000
H      -43.42820000     -32.71600000     -72.90610000
C      -46.72940000     -32.84010000     -71.09570000
H      -46.13390000     -33.49060000     -70.46940000
H      -46.11950000     -32.01350000     -71.37080000
C      -47.19320000     -33.49400000     -72.32940000
C      -48.49250000     -33.63620000     -72.68020000
C      -46.25730000     -34.03990000     -73.26330000
H      -49.38210000     -33.32160000     -72.17520000
C      -46.98760000     -34.73010000     -74.27280000
C      -44.81090000     -34.26280000     -73.32640000
C      -44.50630000     -35.16290000     -74.38370000
S      -48.72920000     -34.62360000     -74.10460000
S      -45.87540000     -35.59570000     -75.38310000
H      -43.46650000     -35.38180000     -74.70220000
