40
Properties=species:S:1:pos:R:3 #=T CELL(abcABC):=T 1.889726e+02=T 90.00000=T Traj:=T positionsangstrom=T Step:=T 0=T Bead:=T pbc="F F F"
C      -42.94480000     -30.74060000     -68.81540000
C      -43.08890000     -32.15930000     -68.84050000
C      -44.30840000     -32.74960000     -68.48220000
C      -45.39910000     -31.97570000     -68.05300000
C      -45.16930000     -30.58220000     -67.99820000
C      -44.03250000     -29.94990000     -68.48030000
H      -42.00580000     -30.26950000     -69.04830000
H      -44.40490000     -33.88610000     -68.60020000
H      -45.87220000     -29.90510000     -67.53120000
H      -43.81800000     -28.88950000     -68.28420000
C      -46.67660000     -32.56750000     -67.62000000
H      -46.94820000     -32.15810000     -66.68840000
H      -46.63510000     -33.67800000     -67.56010000
C      -41.97490000     -33.07490000     -69.21830000
H      -41.03510000     -32.80830000     -68.60060000
H      -42.15790000     -34.05750000     -69.01510000
S      -48.07650000     -32.02080000     -68.75200000
S      -41.37220000     -33.04190000     -70.99760000
C      -47.90090000     -33.26710000     -70.11870000
H      -47.55290000     -34.18120000     -69.69840000
H      -48.91970000     -33.57450000     -70.46080000
C      -42.39190000     -34.36850000     -71.82730000
H      -42.25810000     -35.29510000     -71.30480000
H      -42.04720000     -34.31530000     -72.89270000
C      -43.90950000     -34.10730000     -71.88620000
H      -44.40000000     -34.53180000     -71.00170000
H      -44.11120000     -33.01590000     -71.86980000
C      -46.96940000     -32.82950000     -71.26200000
H      -45.92690000     -32.89630000     -70.89090000
H      -46.99480000     -31.78920000     -71.47220000
C      -47.10710000     -33.58390000     -72.61850000
C      -48.27730000     -33.57610000     -73.30130000
C      -46.01800000     -34.42310000     -73.27160000
H      -49.19580000     -33.13540000     -72.89280000
C      -46.53210000     -35.10030000     -74.39940000
C      -44.65870000     -34.72300000     -73.07520000
C      -44.16360000     -35.64520000     -73.95960000
S      -48.21440000     -34.66520000     -74.74170000
S      -45.32000000     -36.04190000     -75.18760000
H      -43.16310000     -36.02040000     -73.94260000
