40
Properties=species:S:1:pos:R:3 #=T CELL(abcABC):=T 1.889726e+02=T 90.00000=T Traj:=T positionsangstrom=T Step:=T 0=T Bead:=T pbc="F F F"
C      -42.62220000     -31.54120000     -68.71710000
C      -42.96970000     -32.87840000     -68.88800000
C      -44.32120000     -33.23030000     -68.68270000
C      -45.24790000     -32.23950000     -68.32920000
C      -44.88960000     -30.89420000     -68.33290000
C      -43.58060000     -30.50130000     -68.49400000
H      -41.55340000     -31.30700000     -68.81390000
H      -44.72510000     -34.24990000     -68.59960000
H      -45.65040000     -30.13140000     -68.08810000
H      -43.28510000     -29.50110000     -68.30450000
C      -46.63870000     -32.59010000     -67.93230000
H      -46.82530000     -32.35040000     -66.87880000
H      -46.86680000     -33.67210000     -68.05620000
C      -41.94310000     -33.88300000     -69.28510000
H      -41.06680000     -33.94270000     -68.59870000
H      -42.32800000     -34.90620000     -69.33310000
S      -47.99890000     -31.57360000     -68.77900000
S      -41.17940000     -33.37730000     -70.95300000
C      -48.17870000     -32.68980000     -70.17890000
H      -48.46470000     -33.68360000     -69.75120000
H      -49.10290000     -32.42520000     -70.73990000
C      -42.31490000     -34.01490000     -72.33240000
H      -42.05420000     -35.08200000     -72.48310000
H      -42.14800000     -33.39090000     -73.21920000
C      -43.75910000     -33.88440000     -71.91090000
H      -44.01180000     -34.41820000     -71.00410000
H      -43.95650000     -32.85280000     -71.72820000
C      -46.94600000     -32.64410000     -71.12580000
H      -46.05030000     -32.96420000     -70.51490000
H      -46.79870000     -31.60410000     -71.38040000
C      -47.14780000     -33.44980000     -72.37530000
C      -48.40890000     -33.57590000     -72.91430000
C      -46.14290000     -34.11100000     -73.21650000
H      -49.39010000     -33.18270000     -72.48160000
C      -46.70750000     -34.67950000     -74.35000000
C      -44.70940000     -34.38420000     -73.02410000
C      -44.28600000     -35.27350000     -74.02090000
S      -48.47970000     -34.61490000     -74.41950000
S      -45.58820000     -35.78900000     -75.11870000
H      -43.24110000     -35.53660000     -74.26530000
