40
Properties=species:S:1:pos:R:3 #=T CELL(abcABC):=T 1.889726e+02=T 90.00000=T Traj:=T positionsangstrom=T Step:=T 0=T Bead:=T pbc="F F F"
C      -43.17570000     -30.73920000     -68.98530000
C      -43.25700000     -32.08390000     -68.80030000
C      -44.46410000     -32.69170000     -68.39070000
C      -45.54270000     -31.90010000     -68.07580000
C      -45.50310000     -30.51120000     -68.28160000
C      -44.26870000     -29.94670000     -68.69640000
H      -42.23550000     -30.34340000     -69.19490000
H      -44.47990000     -33.74310000     -68.23630000
H      -46.35970000     -29.91970000     -67.99220000
H      -44.11790000     -28.84760000     -68.79050000
C      -46.82810000     -32.61560000     -67.81750000
H      -47.29210000     -32.30580000     -66.92080000
H      -46.61960000     -33.66650000     -67.78280000
C      -42.03080000     -32.94680000     -69.06780000
H      -41.30290000     -32.75500000     -68.26480000
H      -42.19530000     -33.99420000     -68.99770000
S      -48.13770000     -32.34430000     -69.07630000
S      -41.45060000     -32.48000000     -70.70690000
C      -47.54310000     -33.34080000     -70.47190000
H      -46.62680000     -33.95360000     -70.34430000
H      -48.40580000     -34.06530000     -70.68430000
C      -42.42890000     -33.77220000     -71.71200000
H      -42.10760000     -34.77190000     -71.42680000
H      -41.87310000     -33.59330000     -72.63180000
C      -44.02900000     -33.44010000     -71.79240000
H      -44.50500000     -33.78770000     -70.89980000
H      -44.24900000     -32.38490000     -71.96120000
C      -47.32630000     -32.55600000     -71.81800000
H      -46.39430000     -31.98730000     -71.91730000
H      -48.19060000     -31.87930000     -71.95680000
C      -47.18900000     -33.63190000     -72.92240000
C      -48.32100000     -33.99470000     -73.65170000
C      -46.03550000     -34.37810000     -73.34610000
H      -49.27160000     -33.60120000     -73.53310000
C      -46.32120000     -35.45970000     -74.24400000
C      -44.63860000     -34.34460000     -72.89840000
C      -43.91230000     -35.44220000     -73.48270000
S      -47.95080000     -35.30710000     -74.76460000
S      -44.90980000     -36.34920000     -74.57050000
H      -42.81750000     -35.59430000     -73.42960000
