40
Properties=species:S:1:pos:R:3 #=T CELL(abcABC):=T 1.889726e+02=T 90.00000=T Traj:=T positionsangstrom=T Step:=T 0=T Bead:=T pbc="F F F"
C      -45.72550000     -33.63250000     -75.40510000
C      -45.74620000     -33.04270000     -74.12910000
C      -44.53280000     -33.03760000     -73.43710000
C      -43.26920000     -33.50050000     -73.94690000
C      -43.37330000     -34.19030000     -75.21200000
C      -44.54010000     -34.21970000     -75.91810000
H      -46.69860000     -33.63170000     -75.90510000
H      -44.49440000     -32.69630000     -72.41940000
H      -42.47230000     -34.43050000     -75.84080000
H      -44.55450000     -34.84540000     -76.85540000
C      -42.00270000     -33.56760000     -73.16270000
H      -41.86420000     -32.71400000     -72.42340000
H      -41.11780000     -33.50050000     -73.80150000
C      -46.99320000     -32.67490000     -73.38690000
H      -46.69980000     -32.23230000     -72.41010000
H      -47.61940000     -31.97070000     -73.83670000
S      -41.96910000     -35.02640000     -71.94640000
S      -47.94100000     -34.24590000     -72.96830000
C      -42.29190000     -34.07420000     -70.41040000
H      -41.48880000     -34.30380000     -69.63020000
H      -42.11380000     -32.97440000     -70.51960000
C      -46.66870000     -35.18730000     -71.95720000
H      -45.64650000     -35.01310000     -72.30610000
H      -46.83900000     -36.21600000     -72.31980000
C      -46.88870000     -35.22540000     -70.42550000
H      -47.69610000     -35.88230000     -70.15060000
H      -45.98550000     -35.70910000     -70.05380000
C      -43.64960000     -34.36150000     -69.80050000
H      -43.56370000     -35.06450000     -68.93700000
H      -44.23050000     -34.84260000     -70.52520000
C      -44.41940000     -33.12560000     -69.28000000
C      -43.84290000     -32.07910000     -68.69360000
C      -45.91300000     -33.01980000     -69.24960000
H      -42.75440000     -31.96830000     -68.45990000
C      -46.35150000     -31.81740000     -68.75370000
C      -47.03910000     -33.91010000     -69.72080000
C      -48.23780000     -33.36120000     -69.41030000
S      -45.06050000     -30.96530000     -67.94780000
S      -48.10240000     -31.76750000     -68.58880000
H      -49.19360000     -33.65940000     -69.84610000
