40
Properties=species:S:1:pos:R:3 #=T CELL(abcABC):=T 1.889726e+02=T 90.00000=T Traj:=T positionsangstrom=T Step:=T 0=T Bead:=T pbc="F F F"
C      -45.90120000     -33.51680000     -75.33570000
C      -45.72410000     -33.12290000     -74.00960000
C      -44.50580000     -33.32620000     -73.40530000
C      -43.38110000     -33.71630000     -74.13140000
C      -43.57360000     -34.17680000     -75.44800000
C      -44.80120000     -33.94900000     -76.07680000
H      -46.88390000     -33.34580000     -75.79690000
H      -44.47170000     -32.95730000     -72.38060000
H      -42.75820000     -34.61770000     -76.06310000
H      -44.79030000     -34.18450000     -77.12690000
C      -41.98000000     -33.83370000     -73.55720000
H      -41.52050000     -32.91590000     -73.24810000
H      -41.38730000     -34.19480000     -74.37950000
C      -46.93040000     -32.69600000     -73.15710000
H      -46.57180000     -32.26170000     -72.25700000
H      -47.51960000     -32.05260000     -73.84740000
S      -41.96570000     -34.97920000     -72.11180000
S      -47.98330000     -34.15410000     -72.64070000
C      -42.51060000     -33.84960000     -70.69420000
H      -41.59350000     -33.68650000     -70.17430000
H      -42.84610000     -32.94380000     -71.18320000
C      -46.84740000     -35.29050000     -71.75510000
H      -45.78210000     -35.00680000     -71.94960000
H      -47.08430000     -36.32750000     -72.06350000
C      -47.21070000     -35.22860000     -70.24170000
H      -48.21140000     -35.63520000     -70.08390000
H      -46.47970000     -35.80230000     -69.63510000
C      -43.65490000     -34.49190000     -69.80270000
H      -43.17150000     -35.22160000     -69.11160000
H      -44.46030000     -35.02400000     -70.42440000
C      -44.42030000     -33.40810000     -69.07800000
C      -43.79410000     -32.41220000     -68.35040000
C      -45.87060000     -33.16720000     -69.29560000
H      -42.73320000     -32.30410000     -68.19360000
C      -46.17230000     -31.90220000     -68.69980000
C      -47.04080000     -33.80460000     -69.70630000
C      -48.21150000     -32.99140000     -69.54910000
S      -44.84560000     -31.08640000     -67.89010000
S      -47.80720000     -31.46400000     -68.76770000
H      -49.30840000     -33.18720000     -69.69180000
