40
Properties=species:S:1:pos:R:3 #=T CELL(abcABC):=T 1.889726e+02=T 90.00000=T Traj:=T positionsangstrom=T Step:=T 0=T Bead:=T pbc="F F F"
C      -44.94510000     -30.26630000     -70.10660000
C      -43.72530000     -30.59440000     -70.63280000
C      -43.02230000     -31.61670000     -69.99340000
C      -43.68940000     -32.45900000     -69.07300000
C      -44.97260000     -32.17100000     -68.57580000
C      -45.52680000     -31.01480000     -69.06050000
H      -45.47720000     -29.42170000     -70.46530000
H      -42.01200000     -31.91130000     -70.33080000
H      -45.47960000     -32.89420000     -67.84360000
H      -46.49190000     -30.65920000     -68.75200000
C      -42.72910000     -33.52100000     -68.43730000
H      -43.12150000     -33.75400000     -67.45750000
H      -41.72450000     -33.22030000     -68.24030000
C      -42.98780000     -29.90330000     -71.86540000
H      -43.51280000     -28.96390000     -72.19220000
H      -41.89110000     -29.74800000     -71.77700000
S      -42.53340000     -35.00460000     -69.49730000
S      -42.97010000     -31.04540000     -73.42640000
C      -44.27900000     -35.40440000     -69.83320000
H      -44.66740000     -36.17900000     -69.14180000
H      -44.93970000     -34.54210000     -69.68270000
C      -44.68560000     -31.59380000     -73.45750000
H      -45.14450000     -31.48340000     -74.46810000
H      -45.30730000     -30.94160000     -72.83010000
C      -44.86280000     -32.99250000     -72.80380000
H      -44.33150000     -33.79260000     -73.39600000
H      -44.46030000     -32.80440000     -71.82100000
C      -44.64110000     -35.98820000     -71.24410000
H      -44.29090000     -37.05820000     -71.23330000
H      -43.96810000     -35.55460000     -71.98730000
C      -46.10140000     -35.85660000     -71.53380000
C      -47.02990000     -36.78820000     -71.19900000
C      -46.71310000     -34.68930000     -72.15200000
H      -46.85340000     -37.80880000     -70.84720000
C      -48.09180000     -34.79650000     -72.21010000
C      -46.31290000     -33.38410000     -72.65430000
C      -47.33010000     -32.67680000     -73.26620000
S      -48.72280000     -36.24620000     -71.56530000
S      -48.91420000     -33.42500000     -72.91350000
H      -47.29610000     -31.71950000     -73.66410000
