40
Properties=species:S:1:pos:R:3 #=T CELL(abcABC):=T 1.889726e+02=T 90.00000=T Traj:=T positionsangstrom=T Step:=T 0=T Bead:=T pbc="F F F"
C      -44.23270000     -30.11660000     -69.85220000
C      -43.05910000     -30.60880000     -70.51370000
C      -42.52390000     -31.79250000     -70.06000000
C      -43.04960000     -32.60290000     -69.02210000
C      -44.16700000     -32.05320000     -68.36150000
C      -44.74240000     -30.81480000     -68.76090000
H      -44.64530000     -29.10870000     -70.12130000
H      -41.60650000     -32.21920000     -70.53120000
H      -44.52090000     -32.65210000     -67.54610000
H      -45.46150000     -30.41410000     -68.11220000
C      -42.47320000     -33.89840000     -68.54140000
H      -43.03870000     -34.11520000     -67.59300000
H      -41.36870000     -33.97760000     -68.40050000
C      -42.51710000     -30.01770000     -71.78900000
H      -42.89500000     -28.97390000     -71.90370000
H      -41.44100000     -30.02600000     -71.89790000
S      -42.76020000     -35.40360000     -69.56900000
S      -43.17980000     -30.93770000     -73.28000000
C      -44.49910000     -34.98540000     -70.13870000
H      -45.20870000     -35.18590000     -69.25650000
H      -44.57200000     -33.93520000     -70.42730000
C      -44.99630000     -31.35130000     -72.92570000
H      -45.68150000     -30.74690000     -73.52630000
H      -45.11270000     -31.02970000     -71.86900000
C      -45.12520000     -32.86750000     -73.21530000
H      -44.81970000     -33.03030000     -74.28170000
H      -44.42620000     -33.38420000     -72.58190000
C      -44.88280000     -35.88610000     -71.23710000
H      -44.72460000     -36.97140000     -70.89900000
H      -44.20070000     -35.77140000     -72.10780000
C      -46.32790000     -35.80400000     -71.62360000
C      -47.28000000     -36.71870000     -71.20990000
C      -46.96790000     -34.64820000     -72.25870000
H      -47.05350000     -37.70690000     -70.74880000
C      -48.34000000     -34.75190000     -72.30490000
C      -46.53980000     -33.37840000     -72.93410000
C      -47.69600000     -32.64070000     -73.31510000
S      -48.90400000     -36.28280000     -71.54440000
S      -49.20690000     -33.43510000     -73.03740000
H      -47.75520000     -31.74870000     -73.84100000
