40
Properties=species:S:1:pos:R:3 #=T CELL(abcABC):=T 1.889726e+02=T 90.00000=T Traj:=T positionsangstrom=T Step:=T 0=T Bead:=T pbc="F F F"
C      -45.23880000     -33.72450000     -74.92230000
C      -45.46140000     -32.94190000     -73.79010000
C      -44.34990000     -32.58890000     -72.98210000
C      -43.04160000     -33.12310000     -73.24150000
C      -42.88090000     -33.96970000     -74.33160000
C      -43.95700000     -34.24230000     -75.28960000
H      -46.10020000     -33.96410000     -75.55150000
H      -44.51220000     -31.94570000     -72.14780000
H      -41.94510000     -34.44400000     -74.63620000
H      -43.86000000     -34.84900000     -76.25880000
C      -41.80570000     -32.78120000     -72.41680000
H      -42.17780000     -32.15150000     -71.55240000
H      -40.99830000     -32.40400000     -73.06000000
C      -46.82330000     -32.61400000     -73.34960000
H      -46.76520000     -32.12070000     -72.38790000
H      -47.29450000     -31.93030000     -74.02220000
S      -41.28710000     -34.39960000     -71.50160000
S      -47.93220000     -34.19620000     -73.25900000
C      -42.46630000     -34.52650000     -70.05250000
H      -42.29370000     -35.53050000     -69.52530000
H      -42.23460000     -33.71270000     -69.40930000
C      -46.88290000     -35.32180000     -72.20530000
H      -45.88920000     -35.00310000     -72.45100000
H      -47.03950000     -36.21220000     -72.68450000
C      -47.25260000     -35.44830000     -70.72370000
H      -48.23010000     -35.97340000     -70.69860000
H      -46.61830000     -36.27860000     -70.26330000
C      -44.00470000     -34.47880000     -70.41010000
H      -44.46860000     -35.44300000     -70.11630000
H      -44.08820000     -34.34120000     -71.47170000
C      -44.74590000     -33.32440000     -69.81930000
C      -44.17920000     -32.16770000     -69.34190000
C      -46.23440000     -33.27520000     -69.59430000
H      -43.16380000     -31.90600000     -69.48790000
C      -46.61970000     -32.18930000     -68.86360000
C      -47.32300000     -34.13590000     -69.89320000
C      -48.52200000     -33.68310000     -69.43280000
S      -45.33070000     -30.98730000     -68.83050000
S      -48.34170000     -32.21070000     -68.50430000
H      -49.50210000     -34.10050000     -69.56140000
