40
Properties=species:S:1:pos:R:3 #=T CELL(abcABC):=T 1.889726e+02=T 90.00000=T Traj:=T positionsangstrom=T Step:=T 0=T Bead:=T pbc="F F F"
C      -44.00670000     -30.21380000     -69.81070000
C      -42.94450000     -30.84110000     -70.47340000
C      -42.42150000     -32.00530000     -69.86220000
C      -42.87020000     -32.50590000     -68.63400000
C      -43.91200000     -31.77270000     -67.96820000
C      -44.44710000     -30.59840000     -68.54100000
H      -44.37360000     -29.29900000     -70.22550000
H      -41.74930000     -32.53630000     -70.45360000
H      -44.19480000     -32.10980000     -66.91880000
H      -45.37660000     -30.15150000     -68.09750000
C      -42.45400000     -33.89990000     -68.27400000
H      -43.00010000     -34.28100000     -67.41680000
H      -41.40300000     -33.92850000     -67.98670000
C      -42.46970000     -30.36960000     -71.78630000
H      -42.48560000     -29.28330000     -71.70680000
H      -41.44320000     -30.74360000     -71.85840000
S      -42.59710000     -35.10480000     -69.66870000
S      -43.37710000     -30.97190000     -73.28120000
C      -44.40660000     -34.79630000     -70.17100000
H      -45.16850000     -34.91470000     -69.33620000
H      -44.54400000     -33.68010000     -70.35580000
C      -45.05410000     -31.63820000     -72.70530000
H      -45.90810000     -30.96130000     -72.78140000
H      -44.92520000     -31.83130000     -71.64940000
C      -45.32300000     -32.92980000     -73.44740000
H      -45.24990000     -32.80220000     -74.52550000
H      -44.58110000     -33.71960000     -73.13160000
C      -44.89840000     -35.73940000     -71.29870000
H      -44.82350000     -36.77620000     -70.95310000
H      -44.35610000     -35.62130000     -72.28250000
C      -46.36610000     -35.62600000     -71.52480000
C      -47.27250000     -36.64430000     -71.16210000
C      -47.05220000     -34.54800000     -72.33100000
H      -47.03100000     -37.51160000     -70.38970000
C      -48.42640000     -34.84550000     -72.38380000
C      -46.71150000     -33.46970000     -73.19140000
C      -47.79530000     -32.85410000     -73.76230000
S      -48.96120000     -36.18090000     -71.49330000
S      -49.34090000     -33.62940000     -73.29900000
H      -47.75870000     -32.02190000     -74.44410000
