40
Properties=species:S:1:pos:R:3 #=T CELL(abcABC):=T 1.889726e+02=T 90.00000=T Traj:=T positionsangstrom=T Step:=T 0=T Bead:=T pbc="F F F"
C      -45.37940000     -36.38990000     -67.13400000
C      -45.53630000     -35.33570000     -68.00340000
C      -44.76420000     -35.39450000     -69.19920000
C      -43.88900000     -36.49040000     -69.45160000
C      -43.74870000     -37.56190000     -68.52940000
C      -44.49900000     -37.46410000     -67.35540000
H      -45.73790000     -36.20780000     -66.06340000
H      -44.87090000     -34.64730000     -69.99750000
H      -43.24720000     -38.52230000     -68.76460000
H      -44.40710000     -38.24730000     -66.62660000
C      -43.00770000     -36.56920000     -70.64670000
H      -42.48720000     -37.53130000     -70.60500000
H      -42.35770000     -35.64600000     -70.71000000
C      -46.70040000     -34.36870000     -67.95110000
H      -47.34110000     -34.47950000     -68.85390000
H      -47.38790000     -34.49720000     -67.16090000
S      -43.91830000     -36.65100000     -72.25900000
S      -46.36210000     -32.53960000     -67.92070000
C      -43.91610000     -34.81830000     -72.85390000
H      -43.47220000     -34.20980000     -72.13730000
H      -43.37820000     -34.88390000     -73.80360000
C      -45.77490000     -31.89190000     -69.58440000
H      -44.91020000     -32.38600000     -69.98720000
H      -45.39630000     -30.87200000     -69.38420000
C      -46.88360000     -31.99540000     -70.59200000
H      -47.09610000     -33.01260000     -70.92670000
H      -47.73440000     -31.38410000     -70.25170000
C      -45.32980000     -34.23850000     -72.96450000
H      -45.86680000     -34.31090000     -72.04280000
H      -45.90410000     -34.87830000     -73.71030000
C      -45.32510000     -32.82400000     -73.65870000
C      -44.64650000     -32.63190000     -74.84880000
C      -46.01440000     -31.60310000     -73.18390000
H      -44.14570000     -33.37090000     -75.38410000
C      -45.78720000     -30.55330000     -74.02430000
C      -46.64420000     -31.12530000     -71.95450000
C      -47.05390000     -29.83040000     -72.09170000
S      -44.82970000     -30.99240000     -75.48030000
S      -46.42090000     -28.96760000     -73.53030000
H      -47.65430000     -29.26310000     -71.35610000
