40
Properties=species:S:1:pos:R:3 #=T CELL(abcABC):=T 1.889726e+02=T 90.00000=T Traj:=T positionsangstrom=T Step:=T 0=T Bead:=T pbc="F F F"
C      -45.54620000     -36.01960000     -67.07380000
C      -45.99360000     -35.27280000     -68.22040000
C      -45.61210000     -35.77550000     -69.47260000
C      -44.68680000     -36.83100000     -69.58700000
C      -44.35880000     -37.58140000     -68.48950000
C      -44.74440000     -37.18550000     -67.24850000
H      -45.88030000     -35.77890000     -66.04310000
H      -45.99250000     -35.24940000     -70.34950000
H      -43.66870000     -38.43710000     -68.58710000
H      -44.40060000     -37.70560000     -66.30580000
C      -44.09590000     -37.12520000     -70.94320000
H      -43.97220000     -38.22010000     -70.96690000
H      -43.14610000     -36.63560000     -71.16360000
C      -46.95730000     -34.18260000     -68.12840000
H      -47.58600000     -34.28780000     -69.02270000
H      -47.53730000     -34.38750000     -67.24600000
S      -45.19910000     -36.82580000     -72.40080000
S      -46.27230000     -32.53480000     -67.90220000
C      -44.54150000     -35.18710000     -73.12470000
H      -43.68870000     -34.80030000     -72.58250000
H      -44.36800000     -35.51670000     -74.12320000
C      -45.61220000     -32.02430000     -69.56770000
H      -44.91560000     -32.80330000     -69.89120000
H      -45.19250000     -31.07250000     -69.38240000
C      -46.65830000     -31.76300000     -70.69020000
H      -47.20690000     -32.61790000     -71.12340000
H      -47.45610000     -31.22600000     -70.19410000
C      -45.73350000     -34.13350000     -73.11930000
H      -46.12320000     -33.92260000     -72.07210000
H      -46.58350000     -34.43820000     -73.71050000
C      -45.22630000     -32.79380000     -73.67380000
C      -44.48890000     -32.65000000     -74.92410000
C      -45.42440000     -31.49770000     -73.07720000
H      -44.17860000     -33.29010000     -75.67840000
C      -44.93870000     -30.45910000     -73.90890000
C      -46.01980000     -30.98280000     -71.79550000
C      -45.82760000     -29.58990000     -71.66660000
S      -44.21970000     -30.88160000     -75.44820000
S      -45.10500000     -28.89070000     -73.13290000
H      -46.21870000     -28.89840000     -70.91980000
