40
Properties=species:S:1:pos:R:3 #=T CELL(abcABC):=T 1.889726e+02=T 90.00000=T Traj:=T positionsangstrom=T Step:=T 0=T Bead:=T pbc="F F F"
C      -45.59010000     -36.17820000     -67.21560000
C      -45.89660000     -35.34240000     -68.28800000
C      -45.40060000     -35.62000000     -69.59040000
C      -44.60700000     -36.71820000     -69.71480000
C      -44.19850000     -37.47880000     -68.64170000
C      -44.74140000     -37.31450000     -67.40720000
H      -46.04710000     -36.08420000     -66.20390000
H      -45.80680000     -35.06090000     -70.45830000
H      -43.62200000     -38.39370000     -68.80110000
H      -44.70880000     -37.91560000     -66.52760000
C      -44.11180000     -37.19870000     -71.13200000
H      -44.08240000     -38.32550000     -71.12850000
H      -43.09610000     -36.89290000     -71.40170000
C      -46.93580000     -34.26230000     -68.15360000
H      -47.53120000     -34.21450000     -69.07430000
H      -47.66190000     -34.53320000     -67.38020000
S      -45.23920000     -36.70130000     -72.47990000
S      -46.38090000     -32.48470000     -67.89200000
C      -44.65010000     -35.09900000     -72.91170000
H      -43.93790000     -34.62110000     -72.20400000
H      -44.03350000     -35.15590000     -73.84850000
C      -45.58490000     -32.07360000     -69.53400000
H      -45.04940000     -33.03550000     -69.72990000
H      -44.75820000     -31.38290000     -69.30870000
C      -46.57790000     -31.73440000     -70.60840000
H      -46.94140000     -32.65270000     -70.98960000
H      -47.43000000     -31.15970000     -70.18940000
C      -45.88210000     -34.07180000     -73.00810000
H      -46.31680000     -34.04110000     -71.96680000
H      -46.71760000     -34.43630000     -73.63810000
C      -45.44110000     -32.73480000     -73.57550000
C      -44.81240000     -32.70930000     -74.85980000
C      -45.35060000     -31.48360000     -72.89900000
H      -44.74050000     -33.50110000     -75.56090000
C      -44.81790000     -30.50040000     -73.81870000
C      -45.96450000     -30.93200000     -71.72510000
C      -45.81160000     -29.50890000     -71.70810000
S      -44.22520000     -31.06500000     -75.34650000
S      -44.96970000     -28.88890000     -73.13510000
H      -46.12140000     -28.77890000     -70.97000000
