40
Properties=species:S:1:pos:R:3 #=T CELL(abcABC):=T 1.889726e+02=T 90.00000=T Traj:=T positionsangstrom=T Step:=T 0=T Bead:=T pbc="F F F"
C      -43.49730000     -29.85980000     -69.28500000
C      -43.11150000     -30.70700000     -70.32210000
C      -42.72550000     -32.04160000     -70.05660000
C      -42.78810000     -32.46690000     -68.69750000
C      -43.07790000     -31.58340000     -67.65880000
C      -43.40430000     -30.22930000     -67.94070000
H      -43.85950000     -28.92010000     -69.58620000
H      -42.28860000     -32.70510000     -70.77030000
H      -43.20650000     -31.90630000     -66.65300000
H      -43.68390000     -29.47690000     -67.23320000
C      -42.33600000     -33.89960000     -68.20950000
H      -42.81400000     -34.13680000     -67.23420000
H      -41.23560000     -33.97810000     -68.14700000
C      -42.99220000     -30.16720000     -71.72190000
H      -43.57170000     -29.24850000     -71.95700000
H      -41.91560000     -29.98250000     -71.92190000
S      -42.83830000     -35.13780000     -69.55930000
S      -43.41320000     -31.40440000     -73.04170000
C      -44.59740000     -34.76050000     -70.00440000
H      -45.18600000     -35.38510000     -69.33560000
H      -44.91570000     -33.73470000     -69.90390000
C      -45.17110000     -31.79500000     -72.78440000
H      -45.79690000     -30.92250000     -72.98570000
H      -45.40460000     -32.05490000     -71.77140000
C      -45.51510000     -32.92440000     -73.77300000
H      -45.53710000     -32.48970000     -74.81560000
H      -44.69610000     -33.64350000     -73.74130000
C      -44.86420000     -35.21350000     -71.42120000
H      -44.54290000     -36.24010000     -71.50380000
H      -44.39780000     -34.46190000     -72.02660000
C      -46.37370000     -35.34980000     -71.68260000
C      -47.18730000     -36.10030000     -70.84520000
C      -47.18970000     -34.52990000     -72.58460000
H      -46.74120000     -36.91040000     -70.13790000
C      -48.50630000     -34.88830000     -72.51960000
C      -46.84870000     -33.57750000     -73.58050000
C      -47.97240000     -33.21810000     -74.33730000
S      -48.87850000     -36.09270000     -71.29810000
S      -49.41720000     -34.10570000     -73.79640000
H      -47.98060000     -32.48840000     -75.11300000
