40
Properties=species:S:1:pos:R:3 #=T CELL(abcABC):=T 1.889726e+02=T 90.00000=T Traj:=T positionsangstrom=T Step:=T 0=T Bead:=T pbc="F F F"
C      -45.74930000     -36.05680000     -67.46940000
C      -46.32560000     -35.41560000     -68.53910000
C      -45.85920000     -35.69760000     -69.87350000
C      -44.99430000     -36.78400000     -70.07690000
C      -44.45320000     -37.37870000     -68.97460000
C      -44.81130000     -37.07320000     -67.67130000
H      -46.19300000     -35.91620000     -66.50760000
H      -46.42210000     -35.14460000     -70.59730000
H      -43.70690000     -38.20150000     -69.13560000
H      -44.44200000     -37.57830000     -66.78920000
C      -44.62240000     -37.30920000     -71.49170000
H      -44.74210000     -38.41070000     -71.52740000
H      -43.61570000     -37.07700000     -71.74550000
C      -47.35420000     -34.37360000     -68.45260000
H      -47.98030000     -34.32080000     -69.37580000
H      -48.09420000     -34.59300000     -67.74960000
S      -45.85130000     -36.62940000     -72.80930000
S      -46.60450000     -32.76750000     -67.91650000
C      -45.01960000     -35.09010000     -73.19420000
H      -44.24060000     -34.79180000     -72.48340000
H      -44.38800000     -35.16470000     -74.16100000
C      -45.63620000     -32.03780000     -69.24190000
H      -44.74710000     -32.67010000     -69.40540000
H      -45.23060000     -31.18370000     -68.77900000
C      -46.46350000     -31.66330000     -70.46260000
H      -46.97150000     -32.46790000     -70.91810000
H      -47.19160000     -30.89910000     -70.11160000
C      -45.93130000     -33.87200000     -73.28620000
H      -46.41500000     -33.85440000     -72.20620000
H      -46.74850000     -34.08120000     -74.02640000
C      -45.30720000     -32.57310000     -73.66400000
C      -44.63270000     -32.48990000     -74.82530000
C      -45.14590000     -31.38880000     -72.79010000
H      -44.54820000     -33.24280000     -75.53440000
C      -44.40410000     -30.43210000     -73.45790000
C      -45.55990000     -30.95850000     -71.46100000
C      -45.03120000     -29.75300000     -71.14960000
S      -43.89000000     -30.91750000     -75.11820000
S      -44.05010000     -29.09870000     -72.46710000
H      -45.22030000     -29.20150000     -70.20460000
