40
Properties=species:S:1:pos:R:3 #=T CELL(abcABC):=T 1.889726e+02=T 90.00000=T Traj:=T positionsangstrom=T Step:=T 0=T Bead:=T pbc="F F F"
C      -45.78760000     -36.10460000     -67.42470000
C      -46.25540000     -35.37730000     -68.57130000
C      -45.78520000     -35.77870000     -69.79610000
C      -44.89410000     -36.88330000     -69.98350000
C      -44.39810000     -37.46620000     -68.84740000
C      -44.78530000     -37.03520000     -67.60280000
H      -46.06520000     -35.69390000     -66.48070000
H      -46.15740000     -35.19480000     -70.59850000
H      -43.58310000     -38.20980000     -68.89920000
H      -44.39250000     -37.58230000     -66.71250000
C      -44.41790000     -37.21150000     -71.39430000
H      -44.30240000     -38.29790000     -71.43420000
H      -43.44410000     -36.76630000     -71.75240000
C      -47.30860000     -34.28340000     -68.47040000
H      -47.77440000     -34.08780000     -69.44950000
H      -48.01230000     -34.60020000     -67.66320000
S      -45.58560000     -36.75470000     -72.68590000
S      -46.77790000     -32.64630000     -67.78920000
C      -44.94340000     -34.97650000     -73.38340000
H      -43.99250000     -34.84350000     -72.80600000
H      -44.65600000     -35.16190000     -74.42210000
C      -45.66330000     -32.26390000     -69.27720000
H      -45.17470000     -33.22980000     -69.50460000
H      -44.90320000     -31.48850000     -69.05890000
C      -46.39650000     -31.74350000     -70.53780000
H      -46.90220000     -32.55860000     -71.08220000
H      -47.19780000     -31.12900000     -70.14930000
C      -45.98270000     -33.95140000     -73.28470000
H      -46.34970000     -33.76090000     -72.29950000
H      -46.76280000     -34.27230000     -73.87050000
C      -45.37760000     -32.60930000     -73.68040000
C      -44.84280000     -32.41640000     -74.93150000
C      -45.19390000     -31.41410000     -72.85850000
H      -44.82570000     -33.06260000     -75.72260000
C      -44.45270000     -30.42100000     -73.52140000
C      -45.53490000     -30.98990000     -71.50120000
C      -44.99560000     -29.70990000     -71.20730000
S      -44.02480000     -30.83870000     -75.16460000
S      -44.15390000     -29.05800000     -72.56890000
H      -45.15550000     -29.09480000     -70.32410000
