40
Properties=species:S:1:pos:R:3 #=T CELL(abcABC):=T 1.889726e+02=T 90.00000=T Traj:=T positionsangstrom=T Step:=T 0=T Bead:=T pbc="F F F"
C      -46.52200000     -35.15000000     -72.59230000
C      -47.23320000     -34.84770000     -71.45560000
C      -47.65860000     -33.51250000     -71.20210000
C      -47.44940000     -32.54850000     -72.22020000
C      -46.76000000     -32.90280000     -73.39610000
C      -46.32150000     -34.23370000     -73.62910000
H      -46.25590000     -36.19390000     -72.69970000
H      -48.19560000     -33.22950000     -70.22520000
H      -46.51370000     -32.05660000     -74.11200000
H      -45.82450000     -34.45200000     -74.60240000
C      -48.08910000     -31.13140000     -71.94710000
H      -48.95650000     -31.27480000     -71.25360000
H      -48.44940000     -30.75690000     -72.96140000
C      -47.47820000     -36.01960000     -70.39610000
H      -48.40510000     -35.81050000     -69.89010000
H      -47.59070000     -36.88340000     -71.05930000
S      -46.85080000     -29.85420000     -71.24090000
S      -46.28100000     -36.44560000     -69.10040000
C      -46.17710000     -30.86800000     -69.82790000
H      -46.53610000     -30.50480000     -68.84740000
H      -46.59110000     -31.88450000     -69.99890000
C      -45.75660000     -34.76470000     -68.48560000
H      -45.93350000     -34.78570000     -67.38670000
H      -46.36140000     -34.01180000     -68.94220000
C      -44.33230000     -34.40300000     -68.88560000
H      -44.13070000     -33.39710000     -68.53980000
H      -43.57510000     -35.02800000     -68.42440000
C      -44.60750000     -30.97440000     -69.76470000
H      -44.36950000     -31.46810000     -68.84870000
H      -44.21540000     -29.91200000     -69.78200000
C      -43.95490000     -31.73090000     -70.94070000
C      -43.55040000     -31.04890000     -72.10020000
C      -43.74250000     -33.17860000     -71.07740000
H      -43.73830000     -30.05680000     -72.39060000
C      -43.24320000     -33.55940000     -72.32530000
C      -43.97340000     -34.44360000     -70.35250000
C      -43.55740000     -35.54110000     -71.03130000
S      -42.86520000     -32.08530000     -73.31510000
S      -42.96980000     -35.22840000     -72.59590000
H      -43.70720000     -36.53550000     -70.68190000
