40
Properties=species:S:1:pos:R:3 #=T CELL(abcABC):=T 1.889726e+02=T 90.00000=T Traj:=T positionsangstrom=T Step:=T 0=T Bead:=T pbc="F F F"
C      -46.00600000     -35.56930000     -68.43060000
C      -47.06150000     -35.02630000     -69.18550000
C      -47.41000000     -35.57910000     -70.42660000
C      -46.65420000     -36.70570000     -70.80640000
C      -45.60340000     -37.23090000     -70.07780000
C      -45.24750000     -36.60280000     -68.89250000
H      -45.68810000     -34.95200000     -67.54570000
H      -48.17690000     -35.14640000     -71.02190000
H      -45.17180000     -38.10790000     -70.50390000
H      -44.35040000     -36.91950000     -68.34050000
C      -47.03110000     -37.39160000     -72.09680000
H      -48.09910000     -37.62830000     -72.03650000
H      -46.50430000     -38.27250000     -72.41420000
C      -47.85750000     -33.86510000     -68.58130000
H      -48.49110000     -33.34990000     -69.33970000
H      -48.52650000     -34.22530000     -67.82080000
S      -46.98180000     -36.05840000     -73.36400000
S      -46.88820000     -32.44240000     -67.80130000
C      -45.51340000     -34.88360000     -73.08990000
H      -45.06910000     -35.03800000     -72.11950000
H      -44.75770000     -35.06850000     -73.89820000
C      -45.52950000     -32.18160000     -68.97070000
H      -44.99360000     -33.13680000     -69.25950000
H      -44.80000000     -31.55200000     -68.45890000
C      -46.00060000     -31.42250000     -70.23350000
H      -46.75500000     -32.00820000     -70.82270000
H      -46.49260000     -30.54330000     -69.90490000
C      -46.04310000     -33.43630000     -73.31870000
H      -46.73570000     -33.18190000     -72.52200000
H      -46.56280000     -33.44240000     -74.31240000
C      -44.88040000     -32.45530000     -73.36830000
C      -44.01770000     -32.64040000     -74.40210000
C      -44.40730000     -31.53030000     -72.39100000
H      -44.13690000     -33.29290000     -75.29020000
C      -43.15570000     -31.04340000     -72.82000000
C      -44.70830000     -31.06380000     -71.02290000
C      -43.67760000     -30.17300000     -70.60790000
S      -42.55840000     -31.56590000     -74.34170000
S      -42.40480000     -30.02650000     -71.68870000
H      -43.55240000     -29.73330000     -69.66910000
