40
Properties=species:S:1:pos:R:3 #=T CELL(abcABC):=T 1.889726e+02=T 90.00000=T Traj:=T positionsangstrom=T Step:=T 0=T Bead:=T pbc="F F F"
C      -46.83310000     -35.20970000     -72.55080000
C      -47.67130000     -34.74730000     -71.51260000
C      -47.94770000     -33.39550000     -71.42810000
C      -47.17590000     -32.43520000     -72.12010000
C      -46.42800000     -32.89070000     -73.20300000
C      -46.23790000     -34.26320000     -73.40110000
H      -46.61640000     -36.26050000     -72.71730000
H      -48.54430000     -33.02800000     -70.59580000
H      -45.94000000     -32.10900000     -73.77150000
H      -45.66640000     -34.61730000     -74.27570000
C      -47.42930000     -30.90550000     -71.89610000
H      -48.49340000     -30.73410000     -71.41800000
H      -47.27070000     -30.43520000     -72.88550000
C      -48.24300000     -35.70990000     -70.49800000
H      -49.08980000     -35.30380000     -69.97570000
H      -48.48640000     -36.69990000     -70.95070000
S      -46.19870000     -29.96400000     -70.80820000
S      -46.87410000     -36.24630000     -69.39550000
C      -45.63730000     -31.07810000     -69.44670000
H      -46.03760000     -30.57420000     -68.54750000
H      -46.20650000     -31.96270000     -69.48430000
C      -45.99950000     -34.69440000     -68.91060000
H      -46.15300000     -34.48100000     -67.90070000
H      -46.38290000     -33.87170000     -69.53820000
C      -44.43320000     -34.77900000     -68.98830000
H      -44.05550000     -34.03130000     -68.31370000
H      -44.09550000     -35.70760000     -68.64540000
C      -44.11870000     -31.22310000     -69.49630000
H      -43.78340000     -31.85720000     -68.59000000
H      -43.65370000     -30.24940000     -69.29430000
C      -43.55480000     -31.91160000     -70.72690000
C      -43.36570000     -31.17670000     -71.82190000
C      -43.64610000     -33.31620000     -71.09860000
H      -43.25510000     -30.10600000     -71.71830000
C      -43.37180000     -33.51750000     -72.45710000
C      -43.88120000     -34.56900000     -70.43650000
C      -43.69240000     -35.60630000     -71.30830000
S      -43.03490000     -32.02020000     -73.32890000
S      -43.20440000     -35.15450000     -72.86960000
H      -43.46080000     -36.68190000     -71.17150000
