40
Properties=species:S:1:pos:R:3 #=T CELL(abcABC):=T 1.889726e+02=T 90.00000=T Traj:=T positionsangstrom=T Step:=T 0=T Bead:=T pbc="F F F"
C      -45.74100000     -35.60420000     -68.15140000
C      -46.80420000     -35.13050000     -68.83530000
C      -47.04040000     -35.61590000     -70.11340000
C      -46.27620000     -36.60800000     -70.71000000
C      -45.11530000     -37.06630000     -69.98350000
C      -44.86450000     -36.55660000     -68.71010000
H      -45.49270000     -35.19340000     -67.21090000
H      -47.84760000     -35.17040000     -70.71960000
H      -44.40770000     -37.78880000     -70.44400000
H      -43.96790000     -36.84190000     -68.22170000
C      -46.72640000     -37.23760000     -72.00520000
H      -47.45230000     -38.01630000     -71.92670000
H      -45.83940000     -37.73400000     -72.35570000
C      -47.75770000     -34.14620000     -68.22290000
H      -48.68510000     -33.96450000     -68.77290000
H      -48.03720000     -34.49990000     -67.20370000
S      -47.31700000     -35.95260000     -73.15540000
S      -46.92770000     -32.48910000     -67.73350000
C      -45.76890000     -35.02370000     -73.29430000
H      -45.12740000     -35.19250000     -72.37980000
H      -45.21510000     -35.43030000     -74.13750000
C      -45.57090000     -32.28880000     -68.92280000
H      -44.93580000     -33.21200000     -68.99190000
H      -44.87270000     -31.42800000     -68.61530000
C      -45.97090000     -31.98230000     -70.34470000
H      -46.14800000     -32.84880000     -70.91730000
H      -46.86920000     -31.31150000     -70.32480000
C      -45.96710000     -33.54850000     -73.73640000
H      -46.84300000     -33.06920000     -73.25850000
H      -46.21060000     -33.45850000     -74.81250000
C      -44.65030000     -32.72470000     -73.61390000
C      -43.73490000     -32.70420000     -74.60840000
C      -44.28740000     -31.79700000     -72.55580000
H      -43.82210000     -33.21550000     -75.55100000
C      -43.21930000     -30.96810000     -72.91320000
C      -44.84820000     -31.28750000     -71.22170000
C      -44.28510000     -30.12570000     -70.80350000
S      -42.51020000     -31.38040000     -74.46370000
S      -42.97490000     -29.59240000     -71.82100000
H      -44.49620000     -29.56940000     -69.84990000
