40
Properties=species:S:1:pos:R:3 #=T CELL(abcABC):=T 1.889726e+02=T 90.00000=T Traj:=T positionsangstrom=T Step:=T 0=T Bead:=T pbc="F F F"
C      -46.27390000     -35.22980000     -72.56500000
C      -47.11250000     -35.15220000     -71.47200000
C      -47.97110000     -34.02310000     -71.30950000
C      -47.71950000     -32.86650000     -72.06370000
C      -46.92180000     -32.95420000     -73.25110000
C      -46.20160000     -34.12200000     -73.50640000
H      -45.71070000     -36.12930000     -72.77470000
H      -48.79710000     -33.97110000     -70.60100000
H      -46.81080000     -32.08380000     -73.86780000
H      -45.59030000     -34.41160000     -74.40710000
C      -48.27390000     -31.49760000     -71.83480000
H      -48.92790000     -31.49680000     -70.93170000
H      -48.85680000     -31.01660000     -72.69490000
C      -47.24170000     -36.26370000     -70.45950000
H      -48.15950000     -36.07220000     -69.86450000
H      -47.30170000     -37.28390000     -70.85350000
S      -46.99610000     -30.29180000     -71.40760000
S      -45.84140000     -36.23260000     -69.14580000
C      -46.27190000     -31.05070000     -69.87950000
H      -46.74410000     -30.60940000     -69.00700000
H      -46.32130000     -32.10950000     -69.94110000
C      -45.80600000     -34.43060000     -68.69340000
H      -46.30460000     -34.21720000     -67.74450000
H      -46.36430000     -33.78470000     -69.36410000
C      -44.34990000     -33.95000000     -68.72440000
H      -44.34260000     -32.93210000     -68.38750000
H      -43.66940000     -34.37620000     -68.00420000
C      -44.77110000     -30.79970000     -69.96350000
H      -44.36750000     -31.24210000     -69.05500000
H      -44.50330000     -29.68430000     -70.02610000
C      -44.12290000     -31.54590000     -71.11740000
C      -43.94190000     -31.02810000     -72.39070000
C      -43.70760000     -32.96340000     -71.05280000
H      -44.17680000     -30.00740000     -72.67310000
C      -43.10280000     -33.37400000     -72.26370000
C      -43.70910000     -34.05680000     -70.08990000
C      -43.08780000     -35.20100000     -70.58620000
S      -43.32530000     -32.13230000     -73.58970000
S      -42.71970000     -35.10930000     -72.27300000
H      -42.94440000     -36.12010000     -70.07870000
