40
Properties=species:S:1:pos:R:3 #=T CELL(abcABC):=T 1.889726e+02=T 90.00000=T Traj:=T positionsangstrom=T Step:=T 0=T Bead:=T pbc="F F F"
C      -45.97590000     -35.49300000     -72.36710000
C      -46.75550000     -35.34640000     -71.21280000
C      -47.77730000     -34.37770000     -71.23490000
C      -48.04140000     -33.52220000     -72.30860000
C      -47.26130000     -33.70220000     -73.48300000
C      -46.25920000     -34.67490000     -73.44170000
H      -45.18580000     -36.16650000     -72.49740000
H      -48.50440000     -34.26930000     -70.41180000
H      -47.43340000     -33.08050000     -74.34280000
H      -45.56230000     -34.65390000     -74.28900000
C      -48.94780000     -32.32340000     -72.26210000
H      -49.76590000     -32.46250000     -71.54370000
H      -49.30480000     -31.99260000     -73.28250000
C      -46.62660000     -36.06160000     -69.89690000
H      -47.34110000     -35.65510000     -69.21960000
H      -46.83650000     -37.16840000     -70.06880000
S      -47.94610000     -30.87290000     -71.62280000
S      -44.93880000     -35.84150000     -69.10530000
C      -46.97960000     -31.50060000     -70.09260000
H      -47.50220000     -31.13570000     -69.22480000
H      -46.99680000     -32.56170000     -70.26790000
C      -45.10670000     -34.08870000     -68.53920000
H      -45.56740000     -33.99090000     -67.55220000
H      -45.72230000     -33.61500000     -69.34060000
C      -43.73610000     -33.43420000     -68.51300000
H      -43.87040000     -32.40710000     -68.08790000
H      -43.04810000     -33.84830000     -67.74140000
C      -45.53630000     -30.90720000     -70.15060000
H      -45.11280000     -31.09370000     -69.21390000
H      -45.66750000     -29.81870000     -70.26840000
C      -44.74600000     -31.60510000     -71.25740000
C      -44.87860000     -31.24550000     -72.54460000
C      -43.82590000     -32.73030000     -71.04840000
H      -45.50150000     -30.46190000     -72.98930000
C      -43.17120000     -33.04550000     -72.24480000
C      -43.18600000     -33.48700000     -69.90830000
C      -42.26090000     -34.40380000     -70.37280000
S      -43.71540000     -32.02590000     -73.60080000
S      -42.07860000     -34.42580000     -72.22300000
H      -41.66360000     -35.10040000     -69.72110000
