40
Properties=species:S:1:pos:R:3 #=T CELL(abcABC):=T 1.889726e+02=T 90.00000=T Traj:=T positionsangstrom=T Step:=T 0=T Bead:=T pbc="F F F"
C      -45.12120000     -30.38680000     -69.54200000
C      -44.27230000     -30.25150000     -70.66700000
C      -43.18810000     -31.09390000     -70.77140000
C      -42.76520000     -31.92970000     -69.76250000
C      -43.66320000     -32.12420000     -68.73760000
C      -44.84100000     -31.37190000     -68.58600000
H      -45.95240000     -29.72050000     -69.50170000
H      -42.56350000     -31.03710000     -71.60440000
H      -43.38850000     -32.70020000     -67.90320000
H      -45.50460000     -31.39150000     -67.69590000
C      -41.55500000     -32.80270000     -69.85500000
H      -41.20420000     -33.07440000     -68.83280000
H      -40.80270000     -32.10980000     -70.23030000
C      -44.46850000     -29.22240000     -71.62490000
H      -45.14570000     -28.44830000     -71.17280000
H      -43.54000000     -28.79080000     -72.04130000
S      -41.55670000     -34.32720000     -70.88010000
S      -45.30130000     -29.86720000     -73.25620000
C      -43.16910000     -35.05290000     -70.45050000
H      -43.02710000     -36.01890000     -70.08550000
H      -43.66970000     -34.38490000     -69.77420000
C      -46.47740000     -31.15090000     -72.86560000
H      -47.20300000     -31.32090000     -73.66110000
H      -47.12320000     -30.66220000     -72.03850000
C      -45.97540000     -32.54040000     -72.54850000
H      -45.35810000     -32.86880000     -73.37630000
H      -45.28710000     -32.49230000     -71.73060000
C      -44.04420000     -35.12450000     -71.73550000
H      -43.48650000     -35.75760000     -72.44430000
H      -44.12480000     -34.10150000     -72.13960000
C      -45.43100000     -35.77520000     -71.56960000
C      -45.65760000     -37.10710000     -71.11060000
C      -46.68400000     -35.01420000     -71.88970000
H      -44.92200000     -37.88760000     -70.86940000
C      -47.77690000     -35.79760000     -71.69190000
C      -47.04700000     -33.64500000     -72.26680000
C      -48.40340000     -33.49920000     -72.33510000
S      -47.38860000     -37.48280000     -71.17660000
S      -49.29850000     -34.94940000     -72.06760000
H      -48.97210000     -32.65700000     -72.78200000
