40
Properties=species:S:1:pos:R:3 #=T CELL(abcABC):=T 1.889726e+02=T 90.00000=T Traj:=T positionsangstrom=T Step:=T 0=T Bead:=T pbc="F F F"
C      -45.16390000     -30.43410000     -69.31330000
C      -44.38390000     -30.39200000     -70.48200000
C      -43.35480000     -31.27480000     -70.67720000
C      -42.95590000     -32.08550000     -69.56030000
C      -43.66390000     -32.08610000     -68.36610000
C      -44.78850000     -31.29630000     -68.30910000
H      -46.06390000     -29.95370000     -69.21590000
H      -42.75630000     -31.34470000     -71.57140000
H      -43.20970000     -32.59900000     -67.55530000
H      -45.28800000     -31.27640000     -67.32560000
C      -41.61890000     -32.85020000     -69.63510000
H      -41.38490000     -33.36380000     -68.70390000
H      -40.77390000     -32.18730000     -69.81540000
C      -44.73030000     -29.39180000     -71.54160000
H      -45.30000000     -28.54190000     -71.13780000
H      -43.79370000     -28.94950000     -71.88150000
S      -41.55590000     -34.05460000     -71.05500000
S      -45.31410000     -29.98510000     -73.17080000
C      -43.24510000     -34.99660000     -70.80780000
H      -42.97480000     -35.99290000     -70.24160000
H      -43.95470000     -34.34580000     -70.20060000
C      -46.54400000     -31.24430000     -72.85090000
H      -47.20330000     -31.22480000     -73.75830000
H      -47.15980000     -30.99100000     -72.05710000
C      -45.91460000     -32.66720000     -72.78820000
H      -45.34790000     -32.88410000     -73.76200000
H      -45.20970000     -32.85640000     -71.98460000
C      -43.96440000     -35.22210000     -72.11030000
H      -43.43400000     -35.92650000     -72.76050000
H      -43.99870000     -34.26230000     -72.66380000
C      -45.38640000     -35.81830000     -71.84620000
C      -45.58380000     -36.98990000     -71.27350000
C      -46.60990000     -35.02160000     -72.01740000
H      -44.87460000     -37.73110000     -71.09620000
C      -47.72930000     -35.77260000     -71.72380000
C      -46.96080000     -33.67280000     -72.47040000
C      -48.36130000     -33.50530000     -72.57740000
S      -47.31450000     -37.33510000     -71.06950000
S      -49.19420000     -34.89080000     -71.93460000
H      -48.84550000     -32.57460000     -72.88840000
