40
Properties=species:S:1:pos:R:3 #=T CELL(abcABC):=T 1.889726e+02=T 90.00000=T Traj:=T positionsangstrom=T Step:=T 0=T Bead:=T pbc="F F F"
C      -46.31740000     -35.44190000     -72.52080000
C      -47.24700000     -35.29170000     -71.41290000
C      -47.79300000     -34.06220000     -71.14240000
C      -47.62150000     -33.01570000     -72.07490000
C      -46.90750000     -33.18720000     -73.24440000
C      -46.22160000     -34.41290000     -73.45460000
H      -45.71720000     -36.36970000     -72.71090000
H      -48.34370000     -33.88470000     -70.16820000
H      -46.90640000     -32.29120000     -73.86040000
H      -45.62110000     -34.55640000     -74.39650000
C      -48.42680000     -31.70860000     -71.74060000
H      -49.14630000     -31.90120000     -70.99710000
H      -48.91740000     -31.51370000     -72.64550000
C      -47.25550000     -36.38500000     -70.44460000
H      -48.19490000     -36.35890000     -69.90120000
H      -47.04220000     -37.38150000     -70.89410000
S      -47.24610000     -30.30520000     -71.41790000
S      -45.89880000     -36.23200000     -69.19520000
C      -46.28730000     -30.78200000     -69.89770000
H      -46.61670000     -30.22740000     -69.00920000
H      -46.50160000     -31.86410000     -69.61320000
C      -45.74740000     -34.41990000     -68.81200000
H      -46.19730000     -34.22680000     -67.81660000
H      -46.25590000     -34.03080000     -69.67300000
C      -44.25090000     -33.90180000     -68.70300000
H      -44.34270000     -32.84340000     -68.39940000
H      -43.73620000     -34.50870000     -67.96310000
C      -44.74970000     -30.56870000     -70.14530000
H      -44.21520000     -30.82960000     -69.21680000
H      -44.46590000     -29.51160000     -70.45400000
C      -44.21580000     -31.51710000     -71.22790000
C      -44.05310000     -30.96660000     -72.48930000
C      -43.78540000     -32.91030000     -71.10570000
H      -44.09610000     -29.88360000     -72.61770000
C      -43.16290000     -33.32400000     -72.29360000
C      -43.56370000     -33.90770000     -70.04490000
C      -42.93700000     -35.08950000     -70.46410000
S      -43.36120000     -32.18830000     -73.67120000
S      -42.41780000     -34.87430000     -72.13130000
H      -42.78210000     -36.08350000     -70.01310000
