40
Properties=species:S:1:pos:R:3 #=T CELL(abcABC):=T 1.889726e+02=T 90.00000=T Traj:=T positionsangstrom=T Step:=T 0=T Bead:=T pbc="F F F"
C      -44.99730000     -30.39870000     -69.49310000
C      -44.24700000     -30.22010000     -70.65470000
C      -43.02720000     -30.93920000     -70.75170000
C      -42.79270000     -31.93440000     -69.84820000
C      -43.60190000     -32.13070000     -68.73010000
C      -44.76080000     -31.35800000     -68.54070000
H      -45.94620000     -29.75770000     -69.35900000
H      -42.36510000     -30.64760000     -71.60200000
H      -43.42770000     -33.00520000     -68.14260000
H      -45.40390000     -31.45200000     -67.64080000
C      -41.40510000     -32.70480000     -69.91100000
H      -41.11730000     -32.93970000     -68.87450000
H      -40.58050000     -32.28920000     -70.47390000
C      -44.74630000     -29.29480000     -71.72240000
H      -45.48140000     -28.59770000     -71.39610000
H      -43.88490000     -28.67770000     -72.01970000
S      -41.58520000     -34.42860000     -70.78460000
S      -45.12780000     -30.07550000     -73.30930000
C      -43.27740000     -35.09730000     -70.48530000
H      -43.22980000     -36.11510000     -70.02160000
H      -43.85220000     -34.33340000     -69.82070000
C      -46.61790000     -31.11840000     -72.75920000
H      -47.25210000     -31.24400000     -73.58990000
H      -47.03780000     -30.44100000     -71.98690000
C      -46.07070000     -32.44170000     -72.24090000
H      -45.35050000     -32.62790000     -73.06790000
H      -45.52810000     -32.42730000     -71.27970000
C      -43.99390000     -35.22630000     -71.83740000
H      -43.45220000     -35.93840000     -72.48170000
H      -43.92130000     -34.30670000     -72.39950000
C      -45.43040000     -35.75320000     -71.61070000
C      -45.79000000     -37.05050000     -71.23790000
C      -46.67020000     -34.96180000     -71.81990000
H      -45.03130000     -37.82720000     -71.12400000
C      -47.80500000     -35.72480000     -71.64320000
C      -47.04470000     -33.58620000     -72.18540000
C      -48.35810000     -33.41690000     -72.36600000
S      -47.46170000     -37.38060000     -71.33340000
S      -49.31780000     -34.95060000     -72.01780000
H      -48.94070000     -32.49560000     -72.60350000
