40
Properties=species:S:1:pos:R:3 #=T CELL(abcABC):=T 1.889726e+02=T 90.00000=T Traj:=T positionsangstrom=T Step:=T 0=T Bead:=T pbc="F F F"
C      -44.91510000     -30.34800000     -69.34240000
C      -44.20940000     -30.27520000     -70.56580000
C      -43.05040000     -31.04770000     -70.73660000
C      -42.57540000     -31.88670000     -69.67210000
C      -43.33650000     -31.92250000     -68.52730000
C      -44.46080000     -31.19710000     -68.31670000
H      -45.82870000     -29.76520000     -69.28760000
H      -42.51150000     -31.07900000     -71.74910000
H      -43.05090000     -32.56480000     -67.67410000
H      -45.01900000     -31.33080000     -67.40230000
C      -41.46720000     -32.87470000     -69.84910000
H      -41.11290000     -33.20590000     -68.87390000
H      -40.58050000     -32.39760000     -70.28970000
C      -44.65650000     -29.30820000     -71.67550000
H      -45.48530000     -28.64070000     -71.51380000
H      -43.85540000     -28.63240000     -71.92280000
S      -41.86440000     -34.24440000     -71.02900000
S      -44.97090000     -30.24350000     -73.34650000
C      -43.59870000     -34.60830000     -70.75770000
H      -43.65240000     -35.32440000     -69.83670000
H      -44.17240000     -33.64800000     -70.58080000
C      -46.42210000     -31.33550000     -73.08270000
H      -46.80480000     -31.53550000     -74.15080000
H      -47.25910000     -30.83430000     -72.65360000
C      -45.91960000     -32.55920000     -72.34360000
H      -45.08090000     -32.98770000     -72.84710000
H      -45.45390000     -32.20280000     -71.44960000
C      -44.07490000     -35.60720000     -71.80870000
H      -43.54060000     -36.59610000     -71.65160000
H      -43.86310000     -35.12830000     -72.77940000
C      -45.56940000     -35.89720000     -71.67730000
C      -45.92040000     -37.22440000     -71.41490000
C      -46.67250000     -35.01520000     -71.75800000
H      -45.19460000     -38.01320000     -71.38710000
C      -47.93660000     -35.74810000     -71.75190000
C      -46.94160000     -33.62850000     -72.01400000
C      -48.23620000     -33.37070000     -72.02780000
S      -47.63860000     -37.41510000     -71.54290000
S      -49.29170000     -34.71030000     -71.71200000
H      -48.67370000     -32.38650000     -72.08480000
