40
Properties=species:S:1:pos:R:3 #=T CELL(abcABC):=T 1.889726e+02=T 90.00000=T Traj:=T positionsangstrom=T Step:=T 0=T Bead:=T pbc="F F F"
C      -45.34240000     -29.98400000     -69.50920000
C      -44.74750000     -30.09920000     -70.80880000
C      -43.53280000     -30.79980000     -70.98950000
C      -42.88230000     -31.33780000     -69.91540000
C      -43.46560000     -31.18240000     -68.63430000
C      -44.63020000     -30.53090000     -68.41670000
H      -46.33590000     -29.49700000     -69.45590000
H      -43.17540000     -30.92810000     -71.97520000
H      -42.94090000     -31.77400000     -67.86690000
H      -45.14730000     -30.46190000     -67.42830000
C      -41.60800000     -32.11790000     -70.02250000
H      -41.37960000     -32.46720000     -68.97510000
H      -40.76010000     -31.49750000     -70.30780000
C      -45.32490000     -29.42540000     -72.01730000
H      -46.26160000     -28.99280000     -71.69900000
H      -44.73630000     -28.52720000     -72.39510000
S      -41.73270000     -33.46700000     -71.30720000
S      -45.62770000     -30.49520000     -73.49210000
C      -43.26490000     -34.50960000     -70.86990000
H      -43.06480000     -35.20490000     -70.02100000
H      -43.97480000     -33.79920000     -70.52920000
C      -46.77020000     -31.79270000     -72.84700000
H      -46.94990000     -32.44590000     -73.66700000
H      -47.72730000     -31.32490000     -72.55950000
C      -46.29090000     -32.57220000     -71.63040000
H      -45.25310000     -32.80210000     -71.68490000
H      -46.38100000     -31.86050000     -70.74710000
C      -43.76100000     -35.23430000     -72.12540000
H      -43.11820000     -36.04780000     -72.41080000
H      -43.80450000     -34.51240000     -72.97140000
C      -45.12910000     -35.82010000     -71.85320000
C      -45.19400000     -37.18610000     -71.81440000
C      -46.46550000     -35.20990000     -71.64760000
H      -44.41240000     -37.89390000     -71.95040000
C      -47.40780000     -36.19630000     -71.50620000
C      -47.04800000     -33.90550000     -71.48820000
C      -48.40010000     -33.99180000     -71.23660000
S      -46.80060000     -37.83480000     -71.65390000
S      -49.01240000     -35.64790000     -71.18470000
H      -49.04120000     -33.11410000     -71.13060000
