40
Properties=species:S:1:pos:R:3 #=T CELL(abcABC):=T 1.889726e+02=T 90.00000=T Traj:=T positionsangstrom=T Step:=T 0=T Bead:=T pbc="F F F"
C      -45.26240000     -30.10120000     -69.46040000
C      -44.65570000     -30.18360000     -70.70330000
C      -43.49100000     -30.96950000     -70.89930000
C      -42.86570000     -31.59310000     -69.81210000
C      -43.51430000     -31.50670000     -68.47710000
C      -44.65000000     -30.76810000     -68.32980000
H      -46.14050000     -29.50710000     -69.21340000
H      -43.04690000     -31.14350000     -71.89340000
H      -43.15030000     -31.98540000     -67.59600000
H      -45.01740000     -30.74210000     -67.34950000
C      -41.66360000     -32.44370000     -69.88780000
H      -41.40760000     -32.97840000     -68.97160000
H      -40.78360000     -31.78510000     -70.04950000
C      -45.14550000     -29.24660000     -71.82390000
H      -45.99930000     -28.68300000     -71.46950000
H      -44.39160000     -28.49550000     -72.16340000
S      -41.73550000     -33.66930000     -71.25300000
S      -45.76990000     -30.10880000     -73.32410000
C      -43.25470000     -34.63360000     -70.92920000
H      -43.28020000     -35.41450000     -70.16730000
H      -43.96320000     -34.00490000     -70.47280000
C      -46.73820000     -31.40720000     -72.51200000
H      -47.42730000     -31.61210000     -73.39580000
H      -47.26420000     -31.00140000     -71.63830000
C      -45.99880000     -32.80700000     -72.36860000
H      -45.47560000     -32.95590000     -73.31270000
H      -45.31450000     -32.84700000     -71.52990000
C      -43.83040000     -35.13290000     -72.25070000
H      -43.16730000     -35.90510000     -72.60910000
H      -43.84540000     -34.31800000     -72.99360000
C      -45.19470000     -35.88890000     -72.03020000
C      -45.23530000     -37.23120000     -71.73970000
C      -46.48410000     -35.29180000     -71.89590000
H      -44.51020000     -38.07250000     -71.57390000
C      -47.49040000     -36.14770000     -71.52180000
C      -46.94410000     -33.92420000     -71.98880000
C      -48.27450000     -33.80430000     -71.69630000
S      -46.90640000     -37.79720000     -71.34900000
S      -49.02060000     -35.38800000     -71.33410000
H      -48.85360000     -32.89660000     -71.54220000
