40
Properties=species:S:1:pos:R:3 #=T CELL(abcABC):=T 1.889726e+02=T 90.00000=T Traj:=T positionsangstrom=T Step:=T 0=T Bead:=T pbc="F F F"
C      -45.25090000     -30.09580000     -69.33950000
C      -44.53270000     -30.01660000     -70.51080000
C      -43.41260000     -30.91910000     -70.77020000
C      -42.98610000     -31.81440000     -69.69680000
C      -43.70100000     -31.77850000     -68.47030000
C      -44.85640000     -30.93600000     -68.37020000
H      -46.08850000     -29.35510000     -69.17330000
H      -42.92940000     -30.87000000     -71.75700000
H      -43.49460000     -32.45490000     -67.63550000
H      -45.39280000     -30.92380000     -67.45460000
C      -41.71640000     -32.62070000     -69.78560000
H      -41.52850000     -33.20850000     -68.86490000
H      -40.82230000     -32.01990000     -69.92840000
C      -44.96940000     -29.11430000     -71.63950000
H      -45.59720000     -28.31990000     -71.20300000
H      -44.15270000     -28.58060000     -72.11160000
S      -41.73170000     -33.74130000     -71.25510000
S      -45.70350000     -29.90520000     -73.16240000
C      -43.30600000     -34.58720000     -70.96980000
H      -43.17700000     -35.32170000     -70.22010000
H      -44.08720000     -33.85070000     -70.70320000
C      -46.63530000     -31.37680000     -72.52920000
H      -47.63410000     -31.29410000     -72.84370000
H      -46.77930000     -31.33570000     -71.40750000
C      -46.00730000     -32.76660000     -72.87470000
H      -45.95040000     -32.89070000     -73.98750000
H      -45.00390000     -32.90430000     -72.43510000
C      -43.77600000     -35.30740000     -72.26500000
H      -42.96560000     -35.88030000     -72.73710000
H      -44.00080000     -34.52440000     -72.95580000
C      -45.13100000     -35.96540000     -71.95260000
C      -45.21680000     -37.19890000     -71.34800000
C      -46.44680000     -35.25930000     -72.07330000
H      -44.45560000     -37.89100000     -71.20000000
C      -47.45600000     -36.13430000     -71.66190000
C      -46.98920000     -33.93360000     -72.42780000
C      -48.34510000     -33.84930000     -72.14790000
S      -46.93470000     -37.68340000     -71.04430000
S      -49.04610000     -35.40170000     -71.57630000
H      -49.00560000     -33.02820000     -72.35900000
