40
Properties=species:S:1:pos:R:3 #=T CELL(abcABC):=T 1.889726e+02=T 90.00000=T Traj:=T positionsangstrom=T Step:=T 0=T Bead:=T pbc="F F F"
C      -43.28050000     -31.50510000     -68.44980000
C      -43.65390000     -31.76690000     -69.75180000
C      -44.04690000     -33.07670000     -70.12630000
C      -44.07340000     -34.08660000     -69.13830000
C      -43.61080000     -33.81770000     -67.81380000
C      -43.25230000     -32.50910000     -67.48320000
H      -42.97240000     -30.46160000     -68.24160000
H      -44.40710000     -33.26510000     -71.16850000
H      -43.56760000     -34.61560000     -67.12080000
H      -42.84640000     -32.32760000     -66.50250000
C      -44.48240000     -35.44900000     -69.57230000
H      -43.80340000     -36.10500000     -69.13310000
H      -44.54750000     -35.61580000     -70.64530000
C      -43.42430000     -30.67740000     -70.78390000
H      -42.71630000     -29.93050000     -70.48770000
H      -43.05210000     -31.01730000     -71.75290000
S      -46.18710000     -36.03060000     -69.10990000
S      -44.89190000     -29.56980000     -71.20820000
C      -47.23580000     -34.60900000     -69.49790000
H      -48.05970000     -34.72400000     -68.78830000
H      -46.64170000     -33.82450000     -69.02040000
C      -46.33900000     -30.59250000     -70.98530000
H      -47.09460000     -29.82820000     -70.63650000
H      -46.29720000     -31.26150000     -70.11380000
C      -46.89070000     -31.22720000     -72.27690000
H      -47.87490000     -31.68610000     -72.03460000
H      -47.12800000     -30.45680000     -72.96000000
C      -47.85020000     -34.40410000     -70.87680000
H      -48.28320000     -33.38040000     -70.76430000
H      -48.67290000     -35.09020000     -70.96630000
C      -47.05870000     -34.69450000     -72.12380000
C      -46.82170000     -36.00760000     -72.44440000
C      -46.39160000     -33.76610000     -72.95930000
H      -47.10760000     -36.86140000     -71.83620000
C      -45.57490000     -34.49230000     -73.93040000
C      -46.12330000     -32.32130000     -72.93860000
C      -45.11380000     -32.00590000     -73.83080000
S      -45.65200000     -36.26980000     -73.78040000
S      -44.47760000     -33.39780000     -74.78520000
H      -44.72430000     -31.03240000     -73.95940000
