40
Properties=species:S:1:pos:R:3 #=T CELL(abcABC):=T 1.889726e+02=T 90.00000=T Traj:=T positionsangstrom=T Step:=T 0=T Bead:=T pbc="F F F"
C      -45.33890000     -30.14570000     -69.31450000
C      -44.52910000     -29.96090000     -70.47190000
C      -43.38510000     -30.80430000     -70.65560000
C      -42.95920000     -31.72880000     -69.69290000
C      -43.82300000     -31.92760000     -68.56430000
C      -44.96820000     -31.15060000     -68.44230000
H      -46.24900000     -29.62420000     -69.17530000
H      -42.81710000     -30.71070000     -71.57250000
H      -43.42500000     -32.63080000     -67.76820000
H      -45.60700000     -31.33780000     -67.51000000
C      -41.73040000     -32.56450000     -69.82340000
H      -41.54070000     -33.05550000     -68.86790000
H      -40.86920000     -31.91050000     -70.05570000
C      -44.92550000     -29.11920000     -71.61460000
H      -45.78270000     -28.47320000     -71.36550000
H      -44.18940000     -28.43740000     -72.03870000
S      -41.77470000     -33.77760000     -71.20630000
S      -45.55370000     -30.12090000     -73.08170000
C      -43.37630000     -34.61470000     -70.97070000
H      -43.22150000     -35.42220000     -70.17500000
H      -44.21090000     -34.08820000     -70.53050000
C      -46.61400000     -31.40670000     -72.37500000
H      -47.71450000     -31.28190000     -72.66440000
H      -46.59620000     -31.31610000     -71.32630000
C      -46.05070000     -32.77280000     -72.81520000
H      -45.99800000     -32.79510000     -73.92010000
H      -45.05130000     -32.86750000     -72.44010000
C      -43.72530000     -35.32190000     -72.27020000
H      -42.99980000     -36.11970000     -72.51950000
H      -43.85380000     -34.70460000     -73.17790000
C      -45.13430000     -35.92210000     -71.97100000
C      -45.27500000     -37.18160000     -71.44100000
C      -46.40850000     -35.16850000     -71.91610000
H      -44.41360000     -37.83740000     -71.33560000
C      -47.46480000     -36.01080000     -71.56510000
C      -46.91720000     -33.91520000     -72.43820000
C      -48.29570000     -33.83930000     -72.39310000
S      -46.93630000     -37.56940000     -70.97390000
S      -49.06990000     -35.27750000     -71.80350000
H      -48.90000000     -33.02100000     -72.83170000
