40
Properties=species:S:1:pos:R:3 #=T CELL(abcABC):=T 1.889726e+02=T 90.00000=T Traj:=T positionsangstrom=T Step:=T 0=T Bead:=T pbc="F F F"
C      -45.22660000     -29.95360000     -69.46160000
C      -44.60840000     -30.01240000     -70.72670000
C      -43.48240000     -30.74910000     -70.90730000
C      -42.91680000     -31.50490000     -69.84010000
C      -43.49410000     -31.43260000     -68.55000000
C      -44.67140000     -30.67260000     -68.42830000
H      -46.05650000     -29.30080000     -69.31480000
H      -42.85220000     -30.71490000     -71.79110000
H      -43.17380000     -32.05570000     -67.67070000
H      -45.13210000     -30.65750000     -67.37770000
C      -41.58810000     -32.28900000     -70.10820000
H      -41.15050000     -32.60030000     -69.13940000
H      -40.82900000     -31.60340000     -70.54040000
C      -45.23340000     -29.20550000     -71.85700000
H      -46.07960000     -28.52340000     -71.56750000
H      -44.43420000     -28.53630000     -72.16890000
S      -41.71610000     -33.80140000     -71.24770000
S      -45.57470000     -30.27640000     -73.29270000
C      -43.42460000     -34.44880000     -70.98250000
H      -43.55530000     -35.14270000     -70.12570000
H      -44.05820000     -33.52810000     -70.92490000
C      -46.94030000     -31.43320000     -72.67340000
H      -47.61550000     -31.68420000     -73.52660000
H      -47.60440000     -30.97460000     -71.98820000
C      -46.21190000     -32.68670000     -72.09640000
H      -45.31230000     -32.93110000     -72.75830000
H      -45.83790000     -32.37650000     -71.11710000
C      -43.82400000     -35.17240000     -72.19780000
H      -43.17300000     -36.07030000     -72.30960000
H      -43.75460000     -34.55100000     -73.07820000
C      -45.16570000     -35.85530000     -72.01180000
C      -45.22990000     -37.22660000     -71.88330000
C      -46.44710000     -35.22760000     -71.78410000
H      -44.45720000     -38.06590000     -72.08320000
C      -47.44070000     -36.18810000     -71.50400000
C      -47.01820000     -33.88530000     -71.76720000
C      -48.38350000     -33.93920000     -71.46800000
S      -46.86520000     -37.84280000     -71.55720000
S      -49.01090000     -35.55190000     -71.15990000
H      -49.09470000     -33.10910000     -71.48830000
