40
Properties=species:S:1:pos:R:3 #=T CELL(abcABC):=T 1.889726e+02=T 90.00000=T Traj:=T positionsangstrom=T Step:=T 0=T Bead:=T pbc="F F F"
C      -45.91540000     -29.58030000     -69.73680000
C      -45.24660000     -29.81690000     -70.94920000
C      -44.01280000     -30.51240000     -70.92710000
C      -43.51200000     -31.03230000     -69.72990000
C      -44.22440000     -30.82150000     -68.51270000
C      -45.41150000     -30.08190000     -68.51010000
H      -46.89350000     -29.16220000     -69.79490000
H      -43.43020000     -30.67530000     -71.83100000
H      -43.77870000     -31.10870000     -67.53770000
H      -45.85430000     -29.86680000     -67.56230000
C      -42.11890000     -31.67320000     -69.70610000
H      -41.91910000     -32.01570000     -68.66630000
H      -41.37860000     -30.96720000     -69.92950000
C      -45.73990000     -29.39500000     -72.34620000
H      -46.79120000     -29.08140000     -72.23220000
H      -45.00300000     -28.56230000     -72.61760000
S      -41.81430000     -33.04770000     -70.85790000
S      -45.52320000     -30.73030000     -73.63040000
C      -43.16120000     -34.21260000     -70.49690000
H      -43.00920000     -34.98870000     -69.70220000
H      -44.11410000     -33.68750000     -70.33670000
C      -46.82610000     -32.02460000     -73.01310000
H      -46.92400000     -32.58660000     -73.89280000
H      -47.77880000     -31.49000000     -72.79210000
C      -46.28110000     -32.90230000     -71.90410000
H      -45.22190000     -33.01160000     -72.19670000
H      -46.28060000     -32.38570000     -70.97040000
C      -43.54540000     -34.98010000     -71.80790000
H      -42.73690000     -35.59910000     -72.19660000
H      -43.71710000     -34.21430000     -72.58750000
C      -44.72480000     -35.85560000     -71.69890000
C      -44.64540000     -37.21300000     -71.60110000
C      -46.14880000     -35.43240000     -71.60880000
H      -43.77400000     -37.73400000     -71.88250000
C      -47.02110000     -36.53800000     -71.55520000
C      -46.88660000     -34.23180000     -71.74470000
C      -48.28920000     -34.38330000     -71.69000000
S      -46.13760000     -38.09120000     -71.62870000
S      -48.68330000     -36.10590000     -71.42370000
H      -49.00440000     -33.55210000     -71.67780000
