40
Properties=species:S:1:pos:R:3 #=T CELL(abcABC):=T 1.889726e+02=T 90.00000=T Traj:=T positionsangstrom=T Step:=T 0=T Bead:=T pbc="F F F"
C      -46.02670000     -29.77520000     -70.01410000
C      -45.15710000     -29.84950000     -71.12030000
C      -43.85340000     -30.38770000     -70.97420000
C      -43.46550000     -30.84000000     -69.70090000
C      -44.28660000     -30.62340000     -68.56730000
C      -45.58020000     -30.17530000     -68.75990000
H      -46.94110000     -29.24180000     -70.16240000
H      -43.12090000     -30.52170000     -71.76960000
H      -43.89290000     -31.05560000     -67.65460000
H      -46.14180000     -30.16210000     -67.83590000
C      -42.11280000     -31.47510000     -69.58280000
H      -41.86010000     -31.81040000     -68.55020000
H      -41.31070000     -30.77830000     -69.94510000
C      -45.77180000     -29.44270000     -72.41650000
H      -46.74880000     -28.98350000     -72.34080000
H      -45.14650000     -28.66550000     -72.87680000
S      -41.89690000     -32.93390000     -70.79990000
S      -45.68960000     -30.79640000     -73.67360000
C      -43.33870000     -34.09620000     -70.56230000
H      -43.00640000     -34.82250000     -69.76820000
H      -44.14920000     -33.47680000     -70.22050000
C      -46.80390000     -32.01270000     -72.90670000
H      -47.22270000     -32.64820000     -73.74000000
H      -47.58680000     -31.44420000     -72.40170000
C      -46.13240000     -32.90970000     -71.86360000
H      -45.07040000     -33.19270000     -72.01910000
H      -46.08810000     -32.33040000     -70.95910000
C      -43.50800000     -34.97460000     -71.76580000
H      -42.58350000     -35.58560000     -71.84490000
H      -43.50950000     -34.47000000     -72.75320000
C      -44.70430000     -35.92640000     -71.66780000
C      -44.54370000     -37.28710000     -71.61220000
C      -46.07640000     -35.50940000     -71.66410000
H      -43.67800000     -37.93020000     -71.68920000
C      -46.95070000     -36.58470000     -71.57570000
C      -46.80500000     -34.25910000     -71.62800000
C      -48.16970000     -34.46440000     -71.54690000
S      -46.14220000     -38.11470000     -71.51850000
S      -48.60530000     -36.16130000     -71.41300000
H      -49.02160000     -33.69930000     -71.54140000
