40
Properties=species:S:1:pos:R:3 #=T CELL(abcABC):=T 1.889726e+02=T 90.00000=T Traj:=T positionsangstrom=T Step:=T 0=T Bead:=T pbc="F F F"
C      -45.98330000     -29.77390000     -70.14450000
C      -45.13840000     -29.89370000     -71.22870000
C      -43.91780000     -30.55810000     -71.16550000
C      -43.49050000     -31.05110000     -69.90720000
C      -44.30420000     -30.92100000     -68.77020000
C      -45.51430000     -30.26600000     -68.90510000
H      -46.99820000     -29.26380000     -70.15200000
H      -43.34250000     -30.62770000     -72.09410000
H      -43.89720000     -31.35390000     -67.85660000
H      -46.21270000     -30.17210000     -68.03110000
C      -42.13550000     -31.58020000     -69.68250000
H      -42.06820000     -32.03310000     -68.65110000
H      -41.40310000     -30.79870000     -69.71810000
C      -45.54130000     -29.35160000     -72.63460000
H      -46.32580000     -28.63480000     -72.48240000
H      -44.63770000     -29.00080000     -73.08840000
S      -41.68730000     -32.90080000     -70.93160000
S      -46.22640000     -30.68260000     -73.74960000
C      -43.03920000     -34.07140000     -70.46180000
H      -42.66860000     -34.81650000     -69.72970000
H      -43.97670000     -33.54530000     -70.05650000
C      -47.17520000     -31.88320000     -72.73830000
H      -47.74540000     -32.49340000     -73.42330000
H      -47.87390000     -31.38630000     -72.03250000
C      -46.17910000     -32.87990000     -71.98790000
H      -45.32700000     -33.10140000     -72.55730000
H      -45.85300000     -32.31160000     -71.07580000
C      -43.43930000     -34.92590000     -71.66010000
H      -42.61820000     -35.63840000     -71.92700000
H      -43.67190000     -34.26990000     -72.55360000
C      -44.70000000     -35.84640000     -71.38820000
C      -44.44470000     -37.18660000     -71.28160000
C      -46.05070000     -35.47910000     -71.38030000
H      -43.48270000     -37.69900000     -71.38250000
C      -46.89450000     -36.58720000     -71.25750000
C      -46.79130000     -34.23620000     -71.66630000
C      -48.12980000     -34.45570000     -71.79970000
S      -45.98940000     -38.09650000     -71.23730000
S      -48.59090000     -36.19560000     -71.41300000
H      -48.86210000     -33.61150000     -72.03990000
