40
Properties=species:S:1:pos:R:3 #=T CELL(abcABC):=T 1.889726e+02=T 90.00000=T Traj:=T positionsangstrom=T Step:=T 0=T Bead:=T pbc="F F F"
C      -45.35330000     -29.70990000     -69.55380000
C      -44.74380000     -29.85580000     -70.80630000
C      -43.55360000     -30.62930000     -70.93660000
C      -42.99200000     -31.29480000     -69.84520000
C      -43.62030000     -31.12770000     -68.61970000
C      -44.80060000     -30.38630000     -68.40500000
H      -46.24900000     -29.06220000     -69.48940000
H      -43.09980000     -30.73820000     -71.94200000
H      -43.13600000     -31.53270000     -67.76900000
H      -45.37180000     -30.38820000     -67.51870000
C      -41.67910000     -32.12840000     -70.03670000
H      -41.55780000     -32.58490000     -69.03700000
H      -40.77300000     -31.52530000     -70.20130000
C      -45.47450000     -29.41510000     -72.02000000
H      -46.51050000     -29.17300000     -71.78400000
H      -44.94240000     -28.48430000     -72.35760000
S      -41.73920000     -33.37570000     -71.38410000
S      -45.48560000     -30.67540000     -73.44810000
C      -43.09900000     -34.36720000     -70.79660000
H      -42.70850000     -35.34070000     -70.29560000
H      -43.76160000     -33.82740000     -70.08680000
C      -46.65260000     -31.97100000     -72.93730000
H      -46.84910000     -32.71310000     -73.75510000
H      -47.62770000     -31.49100000     -72.80790000
C      -46.28300000     -32.64840000     -71.59820000
H      -45.28350000     -32.86380000     -71.59080000
H      -46.54830000     -31.97760000     -70.76350000
C      -43.96120000     -34.96730000     -72.03560000
H      -43.18800000     -35.47050000     -72.65180000
H      -44.42960000     -34.11230000     -72.54380000
C      -45.14240000     -35.88920000     -71.73100000
C      -45.12600000     -37.25760000     -71.83650000
C      -46.48240000     -35.33230000     -71.60910000
H      -44.29030000     -37.85650000     -71.79600000
C      -47.38470000     -36.34010000     -71.50600000
C      -47.02230000     -33.99140000     -71.44790000
C      -48.37590000     -34.08640000     -71.27980000
S      -46.74840000     -37.90300000     -71.58950000
S      -48.99730000     -35.70620000     -71.34780000
H      -48.85690000     -33.08900000     -71.14330000
