40
Properties=species:S:1:pos:R:3 #=T CELL(abcABC):=T 1.889726e+02=T 90.00000=T Traj:=T positionsangstrom=T Step:=T 0=T Bead:=T pbc="F F F"
C      -45.41210000     -29.62920000     -69.60740000
C      -44.81190000     -29.85950000     -70.83590000
C      -43.60780000     -30.65040000     -70.89280000
C      -43.07350000     -31.21860000     -69.73740000
C      -43.66000000     -30.97590000     -68.55170000
C      -44.85550000     -30.20390000     -68.45170000
H      -46.30130000     -29.07190000     -69.67210000
H      -43.22680000     -30.92240000     -71.85720000
H      -43.16590000     -31.45170000     -67.68650000
H      -45.37890000     -30.05270000     -67.50730000
C      -41.80260000     -32.03800000     -69.91920000
H      -41.48160000     -32.59550000     -69.02060000
H      -40.96210000     -31.35840000     -70.24440000
C      -45.46680000     -29.34790000     -72.02540000
H      -46.49880000     -29.00270000     -71.80130000
H      -44.91660000     -28.47550000     -72.31790000
S      -41.88640000     -33.22400000     -71.33650000
S      -45.43850000     -30.65980000     -73.40940000
C      -43.23340000     -34.51110000     -70.83140000
H      -42.73110000     -35.20800000     -70.27440000
H      -44.00490000     -34.01650000     -70.27370000
C      -46.53570000     -32.06130000     -72.93070000
H      -46.20920000     -32.85260000     -73.61690000
H      -47.54960000     -31.79690000     -73.11150000
C      -46.38490000     -32.67580000     -71.49560000
H      -45.34160000     -32.85390000     -71.33160000
H      -46.70880000     -31.99140000     -70.67760000
C      -43.77600000     -35.12750000     -72.12820000
H      -43.10970000     -35.85100000     -72.67570000
H      -44.02430000     -34.35770000     -72.79650000
C      -45.07620000     -35.90980000     -71.79740000
C      -45.02060000     -37.27120000     -71.81170000
C      -46.36690000     -35.33830000     -71.63710000
H      -44.11230000     -37.82260000     -71.82980000
C      -47.28070000     -36.35970000     -71.42570000
C      -47.05120000     -34.03490000     -71.57320000
C      -48.42190000     -34.15290000     -71.50740000
S      -46.62090000     -37.94410000     -71.56170000
S      -49.00520000     -35.82400000     -71.38440000
H      -48.99350000     -33.20480000     -71.41230000
