40
Properties=species:S:1:pos:R:3 #=T CELL(abcABC):=T 1.889726e+02=T 90.00000=T Traj:=T positionsangstrom=T Step:=T 0=T Bead:=T pbc="F F F"
C      -45.66950000     -29.59220000     -69.60500000
C      -45.09920000     -30.04260000     -70.78300000
C      -43.97900000     -30.85350000     -70.77580000
C      -43.31620000     -31.16160000     -69.58900000
C      -43.85650000     -30.58680000     -68.38870000
C      -45.00560000     -29.80290000     -68.42900000
H      -46.52030000     -28.83380000     -69.55490000
H      -43.73330000     -31.33360000     -71.71000000
H      -43.47530000     -30.67630000     -67.40870000
H      -45.40840000     -29.48750000     -67.49640000
C      -42.13450000     -32.09280000     -69.49690000
H      -42.27080000     -32.72090000     -68.65150000
H      -41.20250000     -31.59200000     -69.33100000
C      -45.75920000     -29.54940000     -72.08530000
H      -46.87610000     -29.25510000     -71.90440000
H      -45.32080000     -28.54130000     -72.38680000
S      -41.83670000     -33.19950000     -71.00190000
S      -45.57970000     -30.53570000     -73.56620000
C      -43.14120000     -34.39690000     -70.81500000
H      -42.96650000     -35.21410000     -70.04520000
H      -43.99660000     -33.74750000     -70.46770000
C      -46.61960000     -32.07980000     -73.29590000
H      -46.40320000     -32.80450000     -74.13670000
H      -47.61270000     -31.66070000     -73.30890000
C      -46.29230000     -32.81230000     -71.99720000
H      -45.24780000     -32.91880000     -71.85110000
H      -46.74300000     -32.16710000     -71.19070000
C      -43.58270000     -35.01150000     -72.16560000
H      -42.77220000     -35.61710000     -72.56360000
H      -43.70260000     -34.08210000     -72.74750000
C      -44.82180000     -35.84610000     -71.84700000
C      -44.73730000     -37.17770000     -71.66240000
C      -46.25100000     -35.38810000     -71.65450000
H      -43.89520000     -37.83560000     -71.62790000
C      -47.09370000     -36.44390000     -71.53480000
C      -46.94230000     -34.16530000     -71.86180000
C      -48.33710000     -34.30400000     -71.68900000
S      -46.34960000     -37.97010000     -71.44180000
S      -48.80420000     -35.99400000     -71.48400000
H      -49.13530000     -33.58490000     -71.88270000
