40
Properties=species:S:1:pos:R:3 #=T CELL(abcABC):=T 1.889726e+02=T 90.00000=T Traj:=T positionsangstrom=T Step:=T 0=T Bead:=T pbc="F F F"
C      -46.55880000     -30.23370000     -70.01790000
C      -45.81550000     -30.10330000     -71.23760000
C      -44.45090000     -30.41250000     -71.21450000
C      -43.80350000     -30.84940000     -70.04260000
C      -44.57960000     -31.16040000     -68.93090000
C      -45.93940000     -30.82780000     -68.87210000
H      -47.52160000     -29.81300000     -69.89790000
H      -44.02010000     -30.27480000     -72.22520000
H      -44.11880000     -31.63230000     -68.04770000
H      -46.64850000     -31.17860000     -68.10660000
C      -42.32330000     -31.20230000     -70.11930000
H      -42.05250000     -31.61870000     -69.13310000
H      -41.83800000     -30.18620000     -70.34840000
C      -46.36870000     -29.58120000     -72.55050000
H      -47.45120000     -29.25790000     -72.38270000
H      -45.73470000     -28.77500000     -72.95330000
S      -41.71780000     -32.38900000     -71.49540000
S      -46.40610000     -30.87340000     -73.92530000
C      -42.79000000     -33.74730000     -70.93950000
H      -42.28830000     -34.29380000     -70.17340000
H      -43.72340000     -33.39470000     -70.54330000
C      -47.16420000     -32.32900000     -73.12190000
H      -47.80550000     -32.72590000     -73.96180000
H      -47.91200000     -31.96030000     -72.42760000
C      -46.10860000     -33.23720000     -72.61620000
H      -45.40200000     -33.50900000     -73.38470000
H      -45.56130000     -32.69180000     -71.84280000
C      -43.29030000     -34.70630000     -72.05090000
H      -42.50620000     -35.42780000     -72.29920000
H      -43.64690000     -34.10390000     -72.91940000
C      -44.36520000     -35.66940000     -71.43550000
C      -44.01430000     -36.88430000     -70.90390000
C      -45.78720000     -35.42920000     -71.32330000
H      -42.98760000     -37.17420000     -70.75370000
C      -46.47010000     -36.49280000     -70.74220000
C      -46.69250000     -34.43230000     -71.87600000
C      -48.02850000     -34.74050000     -71.66740000
S      -45.41500000     -37.81500000     -70.34080000
S      -48.22530000     -36.34380000     -70.82910000
H      -48.93010000     -34.18810000     -71.93220000
