40
Properties=species:S:1:pos:R:3 #=T CELL(abcABC):=T 1.889726e+02=T 90.00000=T Traj:=T positionsangstrom=T Step:=T 0=T Bead:=T pbc="F F F"
C      -46.56690000     -30.31940000     -70.31460000
C      -45.85660000     -30.00460000     -71.49670000
C      -44.45720000     -30.13080000     -71.43720000
C      -43.77820000     -30.72220000     -70.40370000
C      -44.52390000     -31.15380000     -69.29370000
C      -45.89170000     -30.88670000     -69.20840000
H      -47.62130000     -30.21780000     -70.33930000
H      -43.86450000     -29.90160000     -72.37120000
H      -44.11450000     -31.58860000     -68.40150000
H      -46.45360000     -31.35360000     -68.35900000
C      -42.35050000     -31.06460000     -70.53020000
H      -41.91400000     -31.27210000     -69.54730000
H      -41.81610000     -30.19600000     -70.91060000
C      -46.54750000     -29.54810000     -72.68740000
H      -47.66280000     -29.42360000     -72.44210000
H      -46.20320000     -28.66900000     -73.11120000
S      -42.10630000     -32.36970000     -71.70530000
S      -46.42640000     -30.92100000     -73.97990000
C      -43.06400000     -33.79620000     -70.90420000
H      -42.49350000     -34.10810000     -69.99310000
H      -44.02570000     -33.37740000     -70.52210000
C      -47.04030000     -32.35940000     -73.04780000
H      -47.68450000     -32.95300000     -73.75210000
H      -47.81970000     -32.00510000     -72.33660000
C      -45.91820000     -33.27990000     -72.51550000
H      -45.35930000     -33.71310000     -73.33630000
H      -45.23420000     -32.58830000     -71.98060000
C      -43.16860000     -35.03670000     -71.79710000
H      -42.15340000     -35.46330000     -71.92560000
H      -43.56320000     -34.74270000     -72.84990000
C      -44.23330000     -35.97990000     -71.32640000
C      -44.04670000     -37.22110000     -70.73840000
C      -45.66150000     -35.50910000     -71.21590000
H      -43.14640000     -37.80030000     -70.51910000
C      -46.40910000     -36.52190000     -70.62720000
C      -46.43760000     -34.42870000     -71.73540000
C      -47.74030000     -34.55910000     -71.32040000
S      -45.49390000     -37.93190000     -70.13010000
S      -48.07440000     -35.98340000     -70.38950000
H      -48.53390000     -33.91680000     -71.72960000
