40
Properties=species:S:1:pos:R:3 #=T CELL(abcABC):=T 1.889726e+02=T 90.00000=T Traj:=T positionsangstrom=T Step:=T 0=T Bead:=T pbc="F F F"
C      -46.12500000     -30.12830000     -70.17210000
C      -45.29750000     -29.94360000     -71.34900000
C      -43.94910000     -30.31300000     -71.37040000
C      -43.39840000     -30.76790000     -70.16340000
C      -44.21140000     -30.99160000     -69.02530000
C      -45.54030000     -30.70580000     -69.02910000
H      -47.10330000     -29.71530000     -70.00630000
H      -43.35830000     -30.18430000     -72.22570000
H      -43.77280000     -31.42790000     -68.12240000
H      -46.10480000     -30.93540000     -68.13150000
C      -41.94490000     -31.22170000     -70.07040000
H      -41.62440000     -31.18720000     -68.97000000
H      -41.29730000     -30.56150000     -70.66100000
C      -45.85480000     -29.30690000     -72.70460000
H      -46.51480000     -28.46270000     -72.39960000
H      -45.02890000     -29.00460000     -73.28930000
S      -41.50240000     -32.96140000     -70.67660000
S      -46.85530000     -30.51900000     -73.67540000
C      -43.17980000     -33.84140000     -70.61880000
H      -43.27210000     -34.39330000     -69.75240000
H      -43.93760000     -33.11650000     -70.72560000
C      -47.40780000     -31.97130000     -72.76850000
H      -48.41330000     -32.24730000     -73.15880000
H      -47.54240000     -31.61600000     -71.76980000
C      -46.36970000     -33.08800000     -72.64140000
H      -45.94700000     -33.37580000     -73.59940000
H      -45.53960000     -32.68160000     -72.07290000
C      -43.37180000     -34.86780000     -71.75280000
H      -42.52680000     -35.60870000     -71.80820000
H      -43.58160000     -34.35520000     -72.67680000
C      -44.53730000     -35.70930000     -71.48300000
C      -44.25810000     -36.98640000     -71.10680000
C      -45.98200000     -35.44020000     -71.49120000
H      -43.27680000     -37.36580000     -70.86800000
C      -46.67930000     -36.55640000     -70.98570000
C      -46.84430000     -34.37430000     -71.96760000
C      -48.15690000     -34.77880000     -71.88460000
S      -45.62950000     -37.98120000     -70.65860000
S      -48.38860000     -36.40590000     -71.26270000
H      -49.03010000     -34.23640000     -72.19430000
