40
Properties=species:S:1:pos:R:3 #=T CELL(abcABC):=T 1.889726e+02=T 90.00000=T Traj:=T positionsangstrom=T Step:=T 0=T Bead:=T pbc="F F F"
C      -46.66900000     -30.43060000     -70.30050000
C      -45.87950000     -29.91440000     -71.35190000
C      -44.50390000     -30.02390000     -71.27070000
C      -43.86790000     -30.65130000     -70.21720000
C      -44.64100000     -31.03480000     -69.16210000
C      -46.02390000     -30.88720000     -69.14690000
H      -47.76180000     -30.29100000     -70.32410000
H      -43.95430000     -29.62330000     -72.09160000
H      -44.19840000     -31.67260000     -68.36210000
H      -46.58390000     -31.32240000     -68.32680000
C      -42.38420000     -30.97130000     -70.42780000
H      -41.88770000     -31.13950000     -69.40450000
H      -41.79860000     -30.16650000     -70.90290000
C      -46.58520000     -29.52250000     -72.66290000
H      -47.63580000     -29.24200000     -72.39620000
H      -46.01680000     -28.67040000     -73.07700000
S      -42.15130000     -32.46780000     -71.62050000
S      -46.44070000     -30.75970000     -73.97120000
C      -42.87780000     -33.97990000     -70.78400000
H      -42.18990000     -34.42060000     -70.07630000
H      -43.74480000     -33.69560000     -70.25490000
C      -47.02300000     -32.40290000     -73.23490000
H      -47.55860000     -32.89910000     -73.99130000
H      -47.62590000     -32.14490000     -72.34910000
C      -45.89000000     -33.25110000     -72.56880000
H      -45.13080000     -33.63570000     -73.22460000
H      -45.36440000     -32.68800000     -71.77360000
C      -43.09840000     -35.05840000     -71.81990000
H      -42.17790000     -35.59140000     -71.95920000
H      -43.24720000     -34.55860000     -72.79070000
C      -44.22130000     -35.96850000     -71.45230000
C      -43.92140000     -37.17450000     -70.86700000
C      -45.65790000     -35.59840000     -71.32790000
H      -42.99300000     -37.73050000     -70.93540000
C      -46.39430000     -36.55040000     -70.64810000
C      -46.44470000     -34.46200000     -71.79100000
C      -47.72320000     -34.58350000     -71.37030000
S      -45.46050000     -37.92310000     -70.23640000
S      -48.04530000     -36.07270000     -70.46540000
H      -48.52710000     -33.92250000     -71.70090000
