40
Properties=species:S:1:pos:R:3 #=T CELL(abcABC):=T 1.889726e+02=T 90.00000=T Traj:=T positionsangstrom=T Step:=T 0=T Bead:=T pbc="F F F"
C      -46.28600000     -36.09990000     -71.37580000
C      -45.49660000     -35.87810000     -70.23010000
C      -46.04260000     -35.17030000     -69.12780000
C      -47.38910000     -34.67880000     -69.10290000
C      -48.21450000     -34.97050000     -70.23900000
C      -47.62620000     -35.67540000     -71.34880000
H      -45.79090000     -36.59730000     -72.23500000
H      -45.38550000     -35.02520000     -68.32050000
H      -49.13070000     -34.39120000     -70.47970000
H      -48.32030000     -35.92060000     -72.13680000
C      -47.89400000     -33.65790000     -68.08410000
H      -47.39090000     -33.66620000     -67.09800000
H      -48.99520000     -33.74270000     -67.89530000
C      -44.03980000     -36.31410000     -70.16050000
H      -43.71100000     -36.54040000     -69.14100000
H      -43.77350000     -37.29460000     -70.68590000
S      -47.62050000     -31.86190000     -68.72200000
S      -42.85900000     -35.19770000     -71.08040000
C      -45.83450000     -31.92280000     -69.29910000
H      -45.25150000     -31.88080000     -68.38730000
H      -45.69720000     -32.92940000     -69.75590000
C      -42.62470000     -33.62490000     -70.02360000
H      -41.88120000     -33.86580000     -69.25740000
H      -43.58760000     -33.58440000     -69.46130000
C      -42.33390000     -32.43850000     -70.96320000
H      -42.48060000     -31.59240000     -70.40400000
H      -41.32170000     -32.40270000     -71.26710000
C      -45.40520000     -30.82800000     -70.32270000
H      -44.39500000     -30.47500000     -70.02300000
H      -46.04880000     -29.96650000     -70.30170000
C      -45.47940000     -31.35460000     -71.72570000
C      -46.64250000     -31.20900000     -72.47180000
C      -44.50620000     -32.14040000     -72.46020000
H      -47.37870000     -30.45320000     -72.16360000
C      -45.00830000     -32.45950000     -73.71220000
C      -43.17330000     -32.54300000     -72.20240000
C      -42.64140000     -33.18110000     -73.36820000
S      -46.60040000     -31.89620000     -74.07410000
S      -43.83860000     -33.24720000     -74.65760000
H      -41.63320000     -33.60770000     -73.52450000
