40
Properties=species:S:1:pos:R:3 #=T CELL(abcABC):=T 1.889726e+02=T 90.00000=T Traj:=T positionsangstrom=T Step:=T 0=T Bead:=T pbc="F F F"
C      -46.44370000     -30.45830000     -70.32190000
C      -45.83870000     -30.19650000     -71.56500000
C      -44.46620000     -30.43660000     -71.69600000
C      -43.57040000     -30.80540000     -70.60680000
C      -44.26480000     -30.97140000     -69.35620000
C      -45.66180000     -30.80740000     -69.28070000
H      -47.54580000     -30.39890000     -70.20910000
H      -44.01230000     -30.47580000     -72.68140000
H      -43.72370000     -30.97040000     -68.40810000
H      -46.16580000     -31.04750000     -68.35290000
C      -42.09950000     -31.00460000     -70.79120000
H      -41.52840000     -30.95640000     -69.84280000
H      -41.71880000     -30.26710000     -71.44620000
C      -46.69060000     -29.67880000     -72.71110000
H      -47.70050000     -29.57860000     -72.34270000
H      -46.44460000     -28.71700000     -73.25570000
S      -41.69590000     -32.59730000     -71.64820000
S      -46.85170000     -30.99240000     -74.13530000
C      -42.76890000     -33.87020000     -70.98280000
H      -42.23940000     -34.47390000     -70.24970000
H      -43.64760000     -33.49200000     -70.50360000
C      -47.49100000     -32.48800000     -73.20730000
H      -48.07550000     -33.07880000     -73.87630000
H      -48.22260000     -32.13360000     -72.43470000
C      -46.31210000     -33.36980000     -72.66090000
H      -45.96100000     -33.77430000     -73.57160000
H      -45.55080000     -32.74310000     -72.21920000
C      -43.34380000     -34.79790000     -72.09530000
H      -42.47340000     -35.35570000     -72.49610000
H      -43.84570000     -34.21580000     -72.90380000
C      -44.34430000     -35.69820000     -71.32940000
C      -43.94600000     -36.71580000     -70.47160000
C      -45.76370000     -35.48310000     -71.28250000
H      -42.93480000     -37.04720000     -70.31810000
C      -46.41940000     -36.44360000     -70.49460000
C      -46.72580000     -34.47790000     -71.68990000
C      -47.96280000     -34.69600000     -71.21740000
S      -45.26300000     -37.52820000     -69.69810000
S      -48.10430000     -36.15220000     -70.22770000
H      -48.76970000     -33.98720000     -71.25010000
