40
Properties=species:S:1:pos:R:3 #=T CELL(abcABC):=T 1.889726e+02=T 90.00000=T Traj:=T positionsangstrom=T Step:=T 0=T Bead:=T pbc="F F F"
C      -46.30390000     -30.49160000     -70.43220000
C      -45.79390000     -30.10430000     -71.67660000
C      -44.43050000     -30.14660000     -71.85830000
C      -43.57230000     -30.62170000     -70.86010000
C      -44.09360000     -30.96980000     -69.61710000
C      -45.47610000     -30.90740000     -69.38770000
H      -47.38500000     -30.40150000     -70.26510000
H      -43.95640000     -29.82070000     -72.80790000
H      -43.35940000     -31.26810000     -68.84690000
H      -45.93210000     -31.22660000     -68.44330000
C      -42.14230000     -30.81850000     -71.20520000
H      -41.44040000     -30.82860000     -70.33390000
H      -41.83150000     -30.06430000     -71.96130000
C      -46.80400000     -29.67520000     -72.71390000
H      -47.77210000     -29.26560000     -72.43950000
H      -46.27650000     -28.80460000     -73.24840000
S      -42.06610000     -32.42680000     -72.21280000
S      -47.12810000     -31.01490000     -73.93040000
C      -42.88800000     -33.67910000     -71.06930000
H      -42.17620000     -33.97580000     -70.25830000
H      -43.73220000     -33.24770000     -70.55970000
C      -47.47870000     -32.58110000     -72.98490000
H      -48.14820000     -33.08320000     -73.65210000
H      -48.14900000     -32.22420000     -72.15630000
C      -46.21760000     -33.37040000     -72.42610000
H      -45.63580000     -33.80190000     -73.31880000
H      -45.61880000     -32.66030000     -71.81530000
C      -43.28700000     -34.82500000     -71.95010000
H      -42.38750000     -35.43800000     -72.31800000
H      -43.75380000     -34.58660000     -72.87310000
C      -44.19730000     -35.80150000     -71.16860000
C      -43.79550000     -36.84180000     -70.31690000
C      -45.66310000     -35.61630000     -71.14050000
H      -42.77980000     -37.18340000     -70.03600000
C      -46.33940000     -36.59910000     -70.27480000
C      -46.63040000     -34.56870000     -71.57960000
C      -47.91130000     -34.81280000     -71.09460000
S      -45.19210000     -37.68300000     -69.59110000
S      -47.98110000     -36.15380000     -69.97360000
H      -48.79990000     -34.19260000     -71.12330000
