40
Properties=species:S:1:pos:R:3 #=T CELL(abcABC):=T 1.889726e+02=T 90.00000=T Traj:=T positionsangstrom=T Step:=T 0=T Bead:=T pbc="F F F"
C      -46.38600000     -30.44790000     -70.26840000
C      -45.87290000     -30.20870000     -71.56270000
C      -44.51810000     -30.48490000     -71.75440000
C      -43.60090000     -30.80470000     -70.70010000
C      -44.14620000     -31.00700000     -69.42120000
C      -45.56220000     -30.90560000     -69.28220000
H      -47.43760000     -30.33980000     -70.01300000
H      -44.17340000     -30.31810000     -72.76860000
H      -43.53290000     -31.50400000     -68.70120000
H      -45.80080000     -31.24120000     -68.26680000
C      -42.08740000     -30.89420000     -70.86060000
H      -41.61170000     -30.96740000     -69.85280000
H      -41.64970000     -30.02890000     -71.42770000
C      -46.67480000     -29.73920000     -72.80290000
H      -47.62670000     -29.26290000     -72.33700000
H      -46.25320000     -28.91630000     -73.29020000
S      -41.64080000     -32.44800000     -71.80200000
S      -46.99270000     -31.02200000     -74.05090000
C      -42.81940000     -33.65320000     -70.96380000
H      -42.35820000     -34.09530000     -70.04050000
H      -43.67750000     -33.03100000     -70.62860000
C      -47.51460000     -32.53800000     -73.04730000
H      -48.37490000     -33.02850000     -73.62860000
H      -47.80340000     -32.09680000     -72.08850000
C      -46.31360000     -33.53490000     -72.78740000
H      -45.89830000     -33.97760000     -73.75040000
H      -45.46240000     -32.96150000     -72.30170000
C      -43.25000000     -34.77350000     -71.91810000
H      -42.46940000     -35.37290000     -72.19370000
H      -43.71730000     -34.37210000     -72.84020000
C      -44.29640000     -35.71340000     -71.25200000
C      -43.90710000     -36.76020000     -70.48170000
C      -45.74890000     -35.51870000     -71.16810000
H      -42.88920000     -37.18400000     -70.50850000
C      -46.42740000     -36.34820000     -70.28910000
C      -46.72610000     -34.63100000     -71.81220000
C      -47.96690000     -34.80210000     -71.38630000
S      -45.30290000     -37.56610000     -69.66580000
S      -48.12040000     -36.08900000     -70.18860000
H      -48.82190000     -34.27130000     -71.81440000
