40
Properties=species:S:1:pos:R:3 #=T CELL(abcABC):=T 1.889726e+02=T 90.00000=T Traj:=T positionsangstrom=T Step:=T 0=T Bead:=T pbc="F F F"
C      -46.33870000     -30.61060000     -70.39530000
C      -45.85130000     -30.19320000     -71.58940000
C      -44.45700000     -30.20230000     -71.76230000
C      -43.58200000     -30.57790000     -70.72330000
C      -44.10480000     -30.91590000     -69.46410000
C      -45.49890000     -30.91350000     -69.28460000
H      -47.44180000     -30.66340000     -70.24780000
H      -43.87100000     -29.91400000     -72.68000000
H      -43.45240000     -31.19190000     -68.59390000
H      -45.95360000     -31.06020000     -68.23880000
C      -42.13360000     -30.91840000     -70.99420000
H      -41.54960000     -31.08320000     -70.13710000
H      -41.65830000     -30.10050000     -71.52280000
C      -46.79730000     -29.69320000     -72.72030000
H      -47.79860000     -29.51050000     -72.31950000
H      -46.26160000     -28.90850000     -73.20480000
S      -41.92480000     -32.48970000     -71.98500000
S      -47.02240000     -31.06590000     -74.01810000
C      -42.80930000     -33.70090000     -70.96890000
H      -42.16340000     -34.06510000     -70.21590000
H      -43.73170000     -33.22680000     -70.57150000
C      -47.49830000     -32.49720000     -72.95050000
H      -48.31710000     -33.05150000     -73.45810000
H      -47.89100000     -32.14620000     -72.02880000
C      -46.29030000     -33.48760000     -72.68950000
H      -46.07970000     -34.07990000     -73.58910000
H      -45.35330000     -33.02060000     -72.59870000
C      -43.24430000     -34.91200000     -71.89790000
H      -42.28730000     -35.40240000     -72.25890000
H      -43.65610000     -34.46350000     -72.80680000
C      -44.25360000     -35.78550000     -71.26070000
C      -43.91900000     -36.87010000     -70.50010000
C      -45.65490000     -35.44680000     -71.12190000
H      -42.95490000     -37.33750000     -70.21440000
C      -46.31230000     -36.25330000     -70.22420000
C      -46.65150000     -34.53240000     -71.67650000
C      -47.90750000     -34.76840000     -71.24150000
S      -45.27160000     -37.58780000     -69.62800000
S      -48.04030000     -36.14380000     -70.19080000
H      -48.82950000     -34.37890000     -71.61440000
