40
Properties=species:S:1:pos:R:3 #=T CELL(abcABC):=T 1.889726e+02=T 90.00000=T Traj:=T positionsangstrom=T Step:=T 0=T Bead:=T pbc="F F F"
C      -46.22620000     -29.64960000     -70.39620000
C      -45.97170000     -30.04450000     -71.71810000
C      -44.65540000     -30.51250000     -72.02730000
C      -43.66810000     -30.56620000     -71.07860000
C      -43.93770000     -30.14430000     -69.80290000
C      -45.20510000     -29.76070000     -69.40760000
H      -47.20620000     -29.28720000     -70.11720000
H      -44.41890000     -30.69210000     -73.03740000
H      -43.14460000     -30.27580000     -69.08910000
H      -45.39930000     -29.46290000     -68.40440000
C      -42.28460000     -30.96980000     -71.51410000
H      -41.70360000     -31.00560000     -70.60090000
H      -41.88250000     -30.17140000     -72.11230000
C      -46.94200000     -29.85280000     -72.82890000
H      -47.95560000     -29.53720000     -72.54510000
H      -46.52290000     -29.09140000     -73.52280000
S      -42.10340000     -32.47540000     -72.46890000
S      -47.49730000     -31.35700000     -73.82160000
C      -43.07090000     -33.78380000     -71.51180000
H      -42.53950000     -34.07930000     -70.63110000
H      -43.96410000     -33.30220000     -71.17460000
C      -47.64170000     -32.55980000     -72.42670000
H      -48.58860000     -33.03360000     -72.59450000
H      -47.69090000     -32.14350000     -71.41140000
C      -46.50450000     -33.54640000     -72.45980000
H      -46.40110000     -34.08350000     -73.42680000
H      -45.42340000     -33.20370000     -72.34420000
C      -43.43460000     -35.06790000     -72.27470000
H      -42.42620000     -35.39500000     -72.67890000
H      -44.12700000     -34.83700000     -73.16410000
C      -44.26540000     -35.90900000     -71.37720000
C      -43.68620000     -36.92240000     -70.63660000
C      -45.64280000     -35.62040000     -71.04060000
H      -42.79880000     -37.44280000     -70.93610000
C      -46.06700000     -36.51830000     -70.01640000
C      -46.66090000     -34.67900000     -71.44750000
C      -47.76450000     -34.85450000     -70.60340000
S      -44.83460000     -37.70570000     -69.51670000
S      -47.65130000     -36.31710000     -69.53720000
H      -48.67230000     -34.18260000     -70.55390000
