40
Properties=species:S:1:pos:R:3 #=T CELL(abcABC):=T 1.889726e+02=T 90.00000=T Traj:=T positionsangstrom=T Step:=T 0=T Bead:=T pbc="F F F"
C      -46.21750000     -29.67190000     -70.88130000
C      -46.00920000     -30.07270000     -72.18590000
C      -44.69850000     -30.26890000     -72.65340000
C      -43.58600000     -30.15620000     -71.79930000
C      -43.82050000     -29.77540000     -70.50130000
C      -45.13240000     -29.53110000     -70.01150000
H      -47.18040000     -29.34160000     -70.56110000
H      -44.51100000     -30.55150000     -73.69750000
H      -42.96820000     -29.44490000     -69.92450000
H      -45.21340000     -29.08790000     -69.04220000
C      -42.18490000     -30.68560000     -72.16030000
H      -41.49880000     -30.50340000     -71.34310000
H      -41.73300000     -30.27940000     -73.06360000
C      -47.17730000     -30.25800000     -73.09590000
H      -48.09940000     -30.14000000     -72.54270000
H      -47.23300000     -29.44250000     -73.86220000
S      -42.08700000     -32.53090000     -72.49230000
S      -47.25160000     -31.87150000     -73.99300000
C      -43.07510000     -33.31570000     -71.18260000
H      -42.47300000     -33.30020000     -70.24770000
H      -43.96850000     -32.75720000     -71.05480000
C      -47.73750000     -33.01660000     -72.60350000
H      -48.69020000     -33.51710000     -72.70890000
H      -47.69660000     -32.54160000     -71.61600000
C      -46.75890000     -34.21470000     -72.58550000
H      -46.96390000     -34.78320000     -73.48310000
H      -45.72900000     -33.89890000     -72.71720000
C      -43.36840000     -34.76730000     -71.68440000
H      -42.48670000     -35.31270000     -71.87550000
H      -43.86640000     -34.70700000     -72.65190000
C      -44.20130000     -35.50410000     -70.68140000
C      -43.54930000     -36.28020000     -69.70120000
C      -45.67840000     -35.62790000     -70.62350000
H      -42.48960000     -36.45180000     -69.67820000
C      -46.06700000     -36.49370000     -69.64290000
C      -46.82850000     -35.02630000     -71.36980000
C      -48.01810000     -35.41940000     -70.81060000
S      -44.71420000     -37.21990000     -68.78600000
S      -47.82640000     -36.56130000     -69.38200000
H      -48.95170000     -35.16000000     -71.12480000
