40
Properties=species:S:1:pos:R:3 #=T CELL(abcABC):=T 1.889726e+02=T 90.00000=T Traj:=T positionsangstrom=T Step:=T 0=T Bead:=T pbc="F F F"
C      -46.07960000     -36.10820000     -71.99480000
C      -45.53660000     -35.87930000     -70.69830000
C      -46.17200000     -34.97200000     -69.79080000
C      -47.34020000     -34.30170000     -70.12320000
C      -47.86240000     -34.52410000     -71.42630000
C      -47.20720000     -35.33700000     -72.34250000
H      -45.56200000     -36.72780000     -72.69280000
H      -45.63140000     -34.69610000     -68.89830000
H      -48.64200000     -33.81430000     -71.75090000
H      -47.67390000     -35.51360000     -73.34610000
C      -47.97910000     -33.31900000     -69.18630000
H      -48.14890000     -33.83910000     -68.24110000
H      -48.90620000     -33.01670000     -69.68130000
C      -44.26950000     -36.59160000     -70.28620000
H      -44.22300000     -36.63560000     -69.22640000
H      -44.29470000     -37.58890000     -70.62320000
S      -47.08860000     -31.69130000     -68.68770000
S      -42.65410000     -35.83390000     -70.93780000
C      -45.25890000     -31.82790000     -68.80050000
H      -44.80860000     -31.71200000     -67.77960000
H      -44.98400000     -32.81810000     -69.13760000
C      -42.49140000     -34.12080000     -70.09630000
H      -41.56540000     -34.10760000     -69.53090000
H      -43.35540000     -33.77480000     -69.54750000
C      -42.31150000     -33.09220000     -71.19050000
H      -42.17290000     -32.07750000     -70.75740000
H      -41.37450000     -33.35560000     -71.63020000
C      -44.60450000     -30.85280000     -69.72620000
H      -43.51270000     -30.78900000     -69.61870000
H      -44.89700000     -29.76220000     -69.54600000
C      -45.01910000     -31.21130000     -71.16360000
C      -45.98580000     -30.43180000     -71.74080000
C      -44.56630000     -32.25730000     -72.09550000
H      -46.40440000     -29.53180000     -71.28530000
C      -45.36590000     -32.23600000     -73.23570000
C      -43.44900000     -33.12050000     -72.26010000
C      -43.55760000     -33.88650000     -73.40730000
S      -46.73420000     -31.08280000     -73.21750000
S      -45.13180000     -33.60810000     -74.29560000
H      -42.90570000     -34.66970000     -73.76460000
