40
Properties=species:S:1:pos:R:3 #=T CELL(abcABC):=T 1.889726e+02=T 90.00000=T Traj:=T positionsangstrom=T Step:=T 0=T Bead:=T pbc="F F F"
C      -46.25400000     -29.50000000     -70.59310000
C      -45.91310000     -29.95840000     -71.88270000
C      -44.61490000     -30.35620000     -72.17740000
C      -43.64380000     -30.40110000     -71.21410000
C      -43.96370000     -29.99390000     -69.88590000
C      -45.26720000     -29.52980000     -69.57330000
H      -47.29470000     -29.24410000     -70.41710000
H      -44.41360000     -30.61930000     -73.25120000
H      -43.15290000     -30.07480000     -69.12270000
H      -45.60500000     -29.27590000     -68.54440000
C      -42.21840000     -30.79090000     -71.60260000
H      -41.55330000     -30.55900000     -70.81050000
H      -41.89650000     -30.13350000     -72.40320000
C      -46.91930000     -29.77680000     -72.99870000
H      -47.91270000     -29.40050000     -72.59620000
H      -46.56970000     -29.13490000     -73.79870000
S      -42.14420000     -32.40640000     -72.33880000
S      -47.20690000     -31.52430000     -73.87320000
C      -43.16250000     -33.60000000     -71.34200000
H      -42.61590000     -33.86260000     -70.40820000
H      -44.11520000     -33.09410000     -71.04080000
C      -47.67050000     -32.53110000     -72.33940000
H      -48.70040000     -32.81030000     -72.59070000
H      -47.61580000     -31.85200000     -71.49530000
C      -46.66680000     -33.73990000     -72.32660000
H      -46.80270000     -34.20560000     -73.37240000
H      -45.66670000     -33.40650000     -72.34130000
C      -43.48660000     -34.87470000     -72.17320000
H      -42.56120000     -35.33820000     -72.45890000
H      -43.96330000     -34.51870000     -73.14090000
C      -44.30880000     -35.81140000     -71.32960000
C      -43.78780000     -36.97180000     -70.85800000
C      -45.70420000     -35.72320000     -70.83990000
H      -42.74060000     -37.11810000     -70.79730000
C      -46.06440000     -36.65800000     -69.90200000
C      -46.76750000     -34.81390000     -71.23520000
C      -47.89780000     -35.07510000     -70.47490000
S      -44.75350000     -37.89310000     -69.69780000
S      -47.68970000     -36.41320000     -69.34150000
H      -48.85790000     -34.63550000     -70.56900000
