40
Properties=species:S:1:pos:R:3 #=T CELL(abcABC):=T 1.889726e+02=T 90.00000=T Traj:=T positionsangstrom=T Step:=T 0=T Bead:=T pbc="F F F"
C      -42.44700000     -35.90470000     -70.07340000
C      -42.90820000     -34.90740000     -69.22460000
C      -42.63270000     -33.56950000     -69.62840000
C      -41.78650000     -33.30040000     -70.69780000
C      -41.21990000     -34.33400000     -71.43500000
C      -41.58130000     -35.65560000     -71.15350000
H      -42.84990000     -36.87330000     -69.91370000
H      -43.00240000     -32.69910000     -69.07250000
H      -40.58740000     -34.07110000     -72.20400000
H      -41.12900000     -36.39220000     -71.80120000
C      -41.38790000     -31.94190000     -71.20140000
H      -41.09180000     -32.10870000     -72.24650000
H      -40.53110000     -31.63910000     -70.64820000
C      -43.72210000     -35.15820000     -67.99680000
H      -43.15450000     -35.76030000     -67.29550000
H      -43.86820000     -34.19080000     -67.51990000
S      -42.60280000     -30.52610000     -71.14080000
S      -45.38280000     -35.86380000     -68.34560000
C      -43.91290000     -30.81340000     -72.42850000
H      -44.49150000     -29.87980000     -72.46400000
H      -43.45490000     -31.01370000     -73.46710000
C      -46.42480000     -34.73170000     -69.41950000
H      -46.02290000     -33.64600000     -69.38160000
H      -47.48360000     -34.86330000     -69.07360000
C      -46.22640000     -35.08550000     -70.99550000
H      -45.25630000     -34.77910000     -71.30290000
H      -46.24720000     -36.19260000     -70.99860000
C      -44.88150000     -31.90250000     -72.02850000
H      -44.92420000     -31.96330000     -70.89930000
H      -44.37110000     -32.89270000     -72.17280000
C      -46.34240000     -31.92760000     -72.51450000
C      -46.91250000     -30.90190000     -73.17740000
C      -47.31240000     -33.09600000     -72.37450000
H      -46.39070000     -29.96030000     -73.35900000
C      -48.54590000     -32.78140000     -72.94510000
C      -47.28450000     -34.47680000     -71.84220000
C      -48.42800000     -35.12160000     -72.21260000
S      -48.61200000     -31.13810000     -73.63820000
S      -49.65210000     -34.09340000     -73.07320000
H      -48.82570000     -36.07470000     -71.90180000
