40
Properties=species:S:1:pos:R:3 #=T CELL(abcABC):=T 1.889726e+02=T 90.00000=T Traj:=T positionsangstrom=T Step:=T 0=T Bead:=T pbc="F F F"
C      -46.98710000     -36.12450000     -71.57990000
C      -45.96640000     -36.02320000     -70.61860000
C      -46.20190000     -35.31540000     -69.46140000
C      -47.41310000     -34.55600000     -69.31260000
C      -48.43240000     -34.59390000     -70.24830000
C      -48.24170000     -35.42630000     -71.34030000
H      -46.83660000     -36.79870000     -72.38670000
H      -45.33500000     -35.18220000     -68.73350000
H      -49.36070000     -34.12690000     -69.98770000
H      -49.00170000     -35.55700000     -72.06800000
C      -47.64850000     -33.62240000     -68.03540000
H      -47.27910000     -33.98940000     -67.09460000
H      -48.73630000     -33.41020000     -67.88150000
C      -44.67080000     -36.79700000     -70.84990000
H      -44.16850000     -36.97910000     -69.89190000
H      -45.00600000     -37.77530000     -71.26470000
S      -46.88020000     -31.97690000     -68.51410000
S      -43.29310000     -36.11030000     -71.98290000
C      -45.08570000     -32.26210000     -68.55410000
H      -44.68980000     -32.06220000     -67.55410000
H      -44.94880000     -33.29590000     -68.81370000
C      -42.66920000     -34.75090000     -70.73100000
H      -41.83690000     -35.04770000     -70.06880000
H      -43.44580000     -34.54940000     -70.06860000
C      -42.16530000     -33.57700000     -71.60860000
H      -41.65220000     -32.81970000     -70.91850000
H      -41.27600000     -33.94860000     -72.16510000
C      -44.38250000     -31.35800000     -69.62560000
H      -43.36340000     -31.69880000     -69.58460000
H      -44.41750000     -30.35160000     -69.24550000
C      -44.93760000     -31.44260000     -71.04740000
C      -46.03790000     -30.63900000     -71.41490000
C      -44.34240000     -32.16990000     -72.18070000
H      -46.60130000     -30.01400000     -70.72650000
C      -45.11140000     -31.88040000     -73.34660000
C      -43.10850000     -32.93770000     -72.55720000
C      -43.10460000     -33.17040000     -73.88060000
S      -46.43380000     -30.62530000     -73.10960000
S      -44.42050000     -32.32290000     -74.85200000
H      -42.31240000     -33.68510000     -74.40510000
