40
Properties=species:S:1:pos:R:3 #=T CELL(abcABC):=T 1.889726e+02=T 90.00000=T Traj:=T positionsangstrom=T Step:=T 0=T Bead:=T pbc="F F F"
C      -46.90200000     -36.31310000     -71.75180000
C      -45.97870000     -36.38360000     -70.65620000
C      -46.23540000     -35.59800000     -69.50170000
C      -47.23710000     -34.67700000     -69.46080000
C      -48.07200000     -34.46610000     -70.61260000
C      -47.94590000     -35.31610000     -71.70450000
H      -46.87860000     -37.10770000     -72.55570000
H      -45.64410000     -35.74990000     -68.62370000
H      -48.79900000     -33.62390000     -70.61990000
H      -48.61910000     -35.30780000     -72.52570000
C      -47.41650000     -33.77970000     -68.26870000
H      -47.21070000     -34.24830000     -67.29640000
H      -48.44880000     -33.59220000     -68.17380000
C      -44.69690000     -37.07420000     -70.86150000
H      -44.22870000     -37.31930000     -69.87260000
H      -44.68190000     -37.97470000     -71.49050000
S      -46.77170000     -32.09310000     -68.56070000
S      -43.50970000     -35.98460000     -71.85000000
C      -44.83860000     -32.33530000     -68.57920000
H      -44.43820000     -32.28560000     -67.56470000
H      -44.70180000     -33.36460000     -68.96160000
C      -43.12440000     -34.64120000     -70.72940000
H      -42.45970000     -34.98610000     -70.00750000
H      -44.01990000     -34.29270000     -70.21000000
C      -42.41780000     -33.55760000     -71.53300000
H      -41.98560000     -32.76460000     -70.83430000
H      -41.58620000     -34.01800000     -72.08620000
C      -44.21260000     -31.30640000     -69.51940000
H      -43.18290000     -31.45890000     -69.37430000
H      -44.40400000     -30.30240000     -69.11470000
C      -44.76990000     -31.27260000     -70.98430000
C      -45.88110000     -30.50290000     -71.20600000
C      -44.26110000     -31.88590000     -72.20350000
H      -46.48160000     -29.97340000     -70.47280000
C      -45.02850000     -31.54660000     -73.31240000
C      -43.29720000     -32.91020000     -72.53080000
C      -43.37940000     -33.26360000     -73.83850000
S      -46.38250000     -30.48280000     -72.89280000
S      -44.65860000     -32.37270000     -74.79130000
H      -42.78840000     -33.98630000     -74.38450000
