40
Properties=species:S:1:pos:R:3 #=T CELL(abcABC):=T 1.889726e+02=T 90.00000=T Traj:=T positionsangstrom=T Step:=T 0=T Bead:=T pbc="F F F"
C      -46.65090000     -35.34270000     -72.54570000
C      -45.87260000     -35.94110000     -71.53500000
C      -45.97550000     -35.36990000     -70.27740000
C      -46.92630000     -34.40280000     -69.94950000
C      -47.77160000     -33.89020000     -70.95350000
C      -47.57480000     -34.36190000     -72.24080000
H      -46.50380000     -35.65420000     -73.61600000
H      -45.36890000     -35.73160000     -69.44170000
H      -48.13640000     -32.87150000     -70.72740000
H      -48.00280000     -33.70700000     -73.06380000
C      -47.04990000     -33.96640000     -68.53060000
H      -46.44520000     -34.63450000     -67.92640000
H      -48.06670000     -34.04540000     -68.21310000
C      -44.83580000     -36.99520000     -71.72010000
H      -44.74160000     -37.69970000     -70.89780000
H      -45.03320000     -37.61870000     -72.54640000
S      -46.20880000     -32.34270000     -68.16520000
S      -43.15480000     -36.40240000     -72.11650000
C      -44.40630000     -32.61800000     -68.75090000
H      -43.88360000     -32.99130000     -67.93350000
H      -44.37590000     -33.41470000     -69.56150000
C      -42.96240000     -35.00930000     -70.91220000
H      -42.16750000     -35.36080000     -70.29980000
H      -43.85720000     -34.95830000     -70.20800000
C      -42.55990000     -33.64630000     -71.56400000
H      -42.15560000     -32.99100000     -70.84660000
H      -41.80230000     -33.86860000     -72.28100000
C      -43.92240000     -31.36590000     -69.41340000
H      -42.76860000     -31.44710000     -69.69000000
H      -43.94850000     -30.59930000     -68.63180000
C      -44.75600000     -31.08880000     -70.59900000
C      -45.92050000     -30.29530000     -70.70800000
C      -44.60270000     -31.95460000     -71.84020000
H      -46.22830000     -29.51170000     -69.99250000
C      -45.55570000     -31.67730000     -72.84520000
C      -43.68290000     -32.95300000     -72.32020000
C      -44.11830000     -33.48070000     -73.49220000
S      -46.74290000     -30.48340000     -72.24410000
S      -45.52310000     -32.65620000     -74.28850000
H      -43.86620000     -34.42340000     -73.95390000
