40
Properties=species:S:1:pos:R:3 #=T CELL(abcABC):=T 1.889726e+02=T 90.00000=T Traj:=T positionsangstrom=T Step:=T 0=T Bead:=T pbc="F F F"
C      -46.75200000     -35.82480000     -71.95010000
C      -45.83110000     -36.18310000     -70.94450000
C      -45.87580000     -35.40950000     -69.73270000
C      -46.97260000     -34.58060000     -69.50270000
C      -47.92000000     -34.28630000     -70.50700000
C      -47.77080000     -34.92870000     -71.74570000
H      -46.74750000     -36.34980000     -72.95890000
H      -45.29350000     -35.67030000     -68.86180000
H      -48.55000000     -33.40380000     -70.33040000
H      -48.48340000     -34.70370000     -72.54030000
C      -47.09180000     -33.87860000     -68.25330000
H      -46.40300000     -34.23110000     -67.40480000
H      -48.05780000     -33.97430000     -67.79510000
C      -44.79280000     -37.18520000     -71.23780000
H      -44.56960000     -37.89180000     -70.37410000
H      -45.19710000     -37.77350000     -72.06490000
S      -46.58950000     -32.11270000     -68.36270000
S      -43.22680000     -36.61410000     -72.05930000
C      -44.86490000     -32.24240000     -68.72250000
H      -44.32290000     -32.26770000     -67.76860000
H      -44.71050000     -33.14150000     -69.33590000
C      -42.83000000     -35.11910000     -70.94690000
H      -41.84540000     -35.30360000     -70.55080000
H      -43.55080000     -35.08970000     -70.06210000
C      -42.72460000     -33.63660000     -71.45510000
H      -42.66570000     -33.02360000     -70.55910000
H      -41.82860000     -33.53410000     -72.13930000
C      -44.27980000     -31.09830000     -69.51970000
H      -43.21860000     -31.14970000     -69.45650000
H      -44.60380000     -30.19940000     -69.04970000
C      -44.81520000     -31.05820000     -70.91650000
C      -45.77040000     -30.07920000     -71.24270000
C      -44.61920000     -31.93870000     -72.00940000
H      -46.03330000     -29.28160000     -70.55810000
C      -45.33370000     -31.52530000     -73.16250000
C      -43.86880000     -33.15660000     -72.31620000
C      -43.98360000     -33.56580000     -73.59910000
S      -46.34540000     -30.14490000     -72.89210000
S      -45.04530000     -32.52030000     -74.53470000
H      -43.36330000     -34.27450000     -74.10750000
