40
Properties=species:S:1:pos:R:3 #=T CELL(abcABC):=T 1.889726e+02=T 90.00000=T Traj:=T positionsangstrom=T Step:=T 0=T Bead:=T pbc="F F F"
C      -46.78250000     -35.45150000     -72.49150000
C      -45.98930000     -36.07320000     -71.52010000
C      -46.10900000     -35.63300000     -70.22170000
C      -46.87610000     -34.47670000     -69.94170000
C      -47.53370000     -33.71800000     -70.95400000
C      -47.50900000     -34.31450000     -72.26870000
H      -46.83540000     -35.81030000     -73.50690000
H      -45.53270000     -35.97870000     -69.38740000
H      -48.34910000     -33.05020000     -70.61750000
H      -48.15550000     -33.99100000     -73.12440000
C      -47.02070000     -34.04170000     -68.48590000
H      -46.49080000     -34.70210000     -67.74610000
H      -48.07240000     -34.05510000     -68.10130000
C      -44.91770000     -37.02620000     -71.90520000
H      -45.00670000     -37.91930000     -71.18560000
H      -45.05160000     -37.37900000     -72.89350000
S      -46.24420000     -32.29680000     -68.08730000
S      -43.15300000     -36.34040000     -72.07370000
C      -44.51650000     -32.39810000     -68.73200000
H      -43.89670000     -32.75490000     -67.86120000
H      -44.56710000     -33.20730000     -69.44680000
C      -42.70840000     -35.16750000     -70.81310000
H      -41.73070000     -35.42150000     -70.31600000
H      -43.44470000     -35.19920000     -70.01820000
C      -42.64690000     -33.66370000     -71.37050000
H      -42.49490000     -33.01840000     -70.47630000
H      -41.62300000     -33.41960000     -71.91460000
C      -43.95770000     -31.16670000     -69.40140000
H      -42.89140000     -31.16310000     -69.64170000
H      -44.06260000     -30.29100000     -68.86610000
C      -44.75350000     -31.01660000     -70.71880000
C      -45.73670000     -30.01190000     -70.94710000
C      -44.61820000     -31.97880000     -71.84900000
H      -46.16580000     -29.28160000     -70.23600000
C      -45.59720000     -31.75960000     -72.85660000
C      -43.80990000     -33.10350000     -72.19470000
C      -44.19350000     -33.64980000     -73.36650000
S      -46.56470000     -30.30590000     -72.53340000
S      -45.59340000     -32.84530000     -74.19580000
H      -43.76940000     -34.47480000     -73.98000000
