40
Properties=species:S:1:pos:R:3 #=T CELL(abcABC):=T 1.889726e+02=T 90.00000=T Traj:=T positionsangstrom=T Step:=T 0=T Bead:=T pbc="F F F"
C      -45.55010000     -29.60940000     -72.88260000
C      -45.72810000     -30.77190000     -73.63110000
C      -44.63290000     -31.53400000     -73.92610000
C      -43.38040000     -31.23530000     -73.27300000
C      -43.25060000     -30.15380000     -72.37460000
C      -44.33770000     -29.33960000     -72.25450000
H      -46.37240000     -28.89870000     -72.77010000
H      -44.60810000     -32.30030000     -74.71970000
H      -42.26570000     -30.03260000     -71.95970000
H      -44.23920000     -28.55020000     -71.56000000
C      -42.33550000     -32.22670000     -73.68770000
H      -41.41780000     -32.08740000     -73.14610000
H      -42.13990000     -32.17030000     -74.73660000
C      -47.11450000     -30.93790000     -74.29110000
H      -47.57600000     -29.93490000     -74.31820000
H      -47.02600000     -31.17570000     -75.31760000
S      -42.70160000     -33.99920000     -73.38960000
S      -48.33770000     -32.16810000     -73.52740000
C      -43.00660000     -34.34740000     -71.61190000
H      -42.03570000     -34.58150000     -71.21790000
H      -43.37310000     -33.52130000     -71.02050000
C      -47.54760000     -32.37470000     -71.86350000
H      -48.28280000     -32.30070000     -71.12270000
H      -46.94550000     -31.45680000     -71.59650000
C      -46.57640000     -33.67080000     -71.68660000
H      -46.97860000     -34.46770000     -72.29750000
H      -45.57030000     -33.52290000     -72.08520000
C      -43.87870000     -35.67510000     -71.57950000
H      -43.35550000     -36.50150000     -71.94330000
H      -44.65700000     -35.59460000     -72.39970000
C      -44.50390000     -35.88350000     -70.13720000
C      -43.88980000     -36.58710000     -69.13170000
C      -45.61030000     -35.06470000     -69.66880000
H      -43.07080000     -37.31180000     -69.25470000
C      -45.87450000     -35.31960000     -68.28460000
C      -46.54710000     -34.04790000     -70.20860000
C      -47.52740000     -33.71600000     -69.30880000
S      -44.82520000     -36.61220000     -67.62000000
S      -47.18060000     -34.30570000     -67.69710000
H      -48.30990000     -33.04460000     -69.63400000
