40
Properties=species:S:1:pos:R:3 #=T CELL(abcABC):=T 1.889726e+02=T 90.00000=T Traj:=T positionsangstrom=T Step:=T 0=T Bead:=T pbc="F F F"
C      -42.47860000     -31.39750000     -69.37110000
C      -43.21340000     -31.94690000     -70.45100000
C      -43.76830000     -33.22680000     -70.31750000
C      -43.66200000     -33.86710000     -69.09380000
C      -43.05640000     -33.24150000     -68.00740000
C      -42.38460000     -32.07480000     -68.18170000
H      -42.02230000     -30.44410000     -69.46200000
H      -44.23110000     -33.70160000     -71.15250000
H      -43.06510000     -33.70270000     -67.03710000
H      -41.87320000     -31.57840000     -67.39520000
C      -44.31650000     -35.29450000     -69.08790000
H      -43.72210000     -36.04620000     -68.58110000
H      -44.47880000     -35.61830000     -70.11270000
C      -43.29660000     -31.17930000     -71.74590000
H      -42.44310000     -30.55510000     -71.91350000
H      -43.50150000     -31.87160000     -72.58310000
S      -46.03310000     -35.14220000     -68.22700000
S      -44.70340000     -30.02070000     -72.03320000
C      -46.84810000     -33.86140000     -69.34570000
H      -47.30290000     -33.17780000     -68.63590000
H      -46.12560000     -33.16350000     -69.89420000
C      -46.19360000     -30.84330000     -71.29490000
H      -46.59760000     -30.04750000     -70.67680000
H      -45.78270000     -31.60660000     -70.67620000
C      -47.27580000     -31.39020000     -72.25480000
H      -48.14590000     -31.65000000     -71.62190000
H      -47.53910000     -30.63300000     -72.95550000
C      -47.82190000     -34.22350000     -70.36490000
H      -48.44550000     -33.36650000     -70.64300000
H      -48.59480000     -34.92930000     -69.82870000
C      -47.16130000     -34.86660000     -71.58320000
C      -46.80090000     -36.17290000     -71.77030000
C      -46.71600000     -33.99400000     -72.65130000
H      -47.02010000     -37.00720000     -71.19320000
C      -45.82390000     -34.69050000     -73.47170000
C      -46.77310000     -32.54730000     -73.05080000
C      -46.10900000     -32.32600000     -74.21850000
S      -45.74880000     -36.37190000     -73.15400000
S      -45.38910000     -33.71490000     -74.89950000
H      -45.89030000     -31.35030000     -74.66540000
