40
Properties=species:S:1:pos:R:3 #=T CELL(abcABC):=T 1.889726e+02=T 90.00000=T Traj:=T positionsangstrom=T Step:=T 0=T Bead:=T pbc="F F F"
C      -46.62390000     -35.18000000     -72.49080000
C      -45.78600000     -35.92420000     -71.64770000
C      -45.83300000     -35.74270000     -70.24610000
C      -46.70970000     -34.79280000     -69.69720000
C      -47.58290000     -34.09790000     -70.54790000
C      -47.51550000     -34.27460000     -71.91690000
H      -46.74430000     -35.20620000     -73.53350000
H      -45.15690000     -36.43410000     -69.63460000
H      -48.28060000     -33.38170000     -70.14290000
H      -48.23090000     -33.83560000     -72.61840000
C      -46.84410000     -34.55640000     -68.24920000
H      -46.24390000     -35.22870000     -67.67850000
H      -47.85670000     -34.61860000     -67.90250000
C      -44.73770000     -36.82750000     -72.16290000
H      -44.36170000     -37.57170000     -71.39500000
H      -45.10360000     -37.44040000     -72.97810000
S      -46.19600000     -32.93400000     -67.73980000
S      -43.33390000     -35.82420000     -72.87420000
C      -44.46330000     -33.03300000     -68.35810000
H      -43.77700000     -33.15440000     -67.52490000
H      -44.48180000     -33.96460000     -68.98070000
C      -42.72190000     -34.76880000     -71.48630000
H      -41.82640000     -35.23800000     -71.08070000
H      -43.44730000     -34.76760000     -70.64400000
C      -42.43460000     -33.37350000     -72.00880000
H      -42.03140000     -32.72870000     -71.24840000
H      -41.70010000     -33.46740000     -72.83550000
C      -44.15360000     -31.85720000     -69.27240000
H      -43.10090000     -32.04250000     -69.55100000
H      -44.14060000     -30.86730000     -68.65270000
C      -45.03880000     -31.63060000     -70.46200000
C      -46.18120000     -30.89100000     -70.40700000
C      -44.73250000     -32.00940000     -71.84410000
H      -46.53330000     -30.61620000     -69.39940000
C      -45.69210000     -31.48870000     -72.76560000
C      -43.62830000     -32.63570000     -72.54410000
C      -43.88200000     -32.74950000     -73.85080000
S      -47.01170000     -30.68750000     -71.91610000
S      -45.34060000     -31.81710000     -74.35520000
H      -43.25040000     -33.17940000     -74.62680000
