40
Properties=species:S:1:pos:R:3 #=T CELL(abcABC):=T 1.889726e+02=T 90.00000=T Traj:=T positionsangstrom=T Step:=T 0=T Bead:=T pbc="F F F"
C      -46.55730000     -35.26740000     -72.40600000
C      -45.76890000     -35.96550000     -71.44140000
C      -45.97430000     -35.75520000     -70.06880000
C      -46.89200000     -34.72610000     -69.66910000
C      -47.70780000     -34.12890000     -70.62570000
C      -47.45610000     -34.38630000     -71.97880000
H      -46.42210000     -35.38320000     -73.48270000
H      -45.35210000     -36.17110000     -69.32530000
H      -48.43740000     -33.35470000     -70.45230000
H      -47.82910000     -33.76220000     -72.71140000
C      -46.98390000     -34.38800000     -68.16160000
H      -46.69050000     -35.31340000     -67.54430000
H      -48.05680000     -34.25000000     -67.88510000
C      -44.63570000     -36.90260000     -71.91570000
H      -44.23830000     -37.44190000     -71.05190000
H      -45.03510000     -37.61390000     -72.60780000
S      -46.08870000     -32.81780000     -67.71610000
S      -43.29410000     -35.99230000     -72.74170000
C      -44.38350000     -33.08070000     -68.50050000
H      -43.65440000     -33.07850000     -67.66320000
H      -44.33690000     -33.99250000     -69.04540000
C      -42.84700000     -34.74570000     -71.44410000
H      -42.06850000     -35.25390000     -70.90910000
H      -43.73180000     -34.66340000     -70.83430000
C      -42.47080000     -33.36710000     -72.11860000
H      -41.97390000     -32.76530000     -71.38920000
H      -41.68330000     -33.50960000     -72.90350000
C      -44.08510000     -31.85640000     -69.29680000
H      -43.13800000     -31.74350000     -69.67150000
H      -44.14370000     -31.03230000     -68.60530000
C      -44.99210000     -31.65460000     -70.53650000
C      -46.15080000     -30.90850000     -70.39720000
C      -44.66500000     -31.95360000     -71.96020000
H      -46.55600000     -30.49640000     -69.46890000
C      -45.69970000     -31.50810000     -72.78300000
C      -43.68910000     -32.62000000     -72.68120000
C      -43.89560000     -32.57400000     -73.99920000
S      -46.99830000     -30.67760000     -71.94530000
S      -45.38050000     -31.82510000     -74.47420000
H      -43.25720000     -32.85910000     -74.81930000
