40
Properties=species:S:1:pos:R:3 #=T CELL(abcABC):=T 1.889726e+02=T 90.00000=T Traj:=T positionsangstrom=T Step:=T 0=T Bead:=T pbc="F F F"
C      -45.83520000     -30.42490000     -72.32890000
C      -46.36130000     -31.11510000     -73.43760000
C      -45.41280000     -31.80520000     -74.22630000
C      -44.10290000     -31.80850000     -73.94120000
C      -43.55980000     -31.03080000     -72.93450000
C      -44.48150000     -30.36860000     -72.06780000
H      -46.50520000     -29.84870000     -71.72100000
H      -45.76110000     -32.49650000     -75.02110000
H      -42.52180000     -31.17340000     -72.65090000
H      -44.10770000     -29.64350000     -71.38750000
C      -43.15230000     -32.70700000     -74.76770000
H      -42.14280000     -32.39250000     -74.77770000
H      -43.50350000     -32.81230000     -75.79970000
C      -47.75040000     -31.27970000     -73.88050000
H      -48.31960000     -30.52550000     -73.40060000
H      -48.05310000     -31.32020000     -74.92270000
S      -43.25120000     -34.44860000     -74.09440000
S      -48.48960000     -32.89470000     -73.36730000
C      -43.35800000     -34.20080000     -72.23260000
H      -42.39190000     -34.14440000     -71.77410000
H      -44.02950000     -33.40100000     -72.01060000
C      -48.14580000     -32.79470000     -71.50500000
H      -48.99770000     -33.37000000     -71.10420000
H      -48.19930000     -31.70330000     -71.21570000
C      -46.74680000     -33.49540000     -71.25040000
H      -46.86170000     -34.47280000     -71.68380000
H      -45.96870000     -32.93970000     -71.72800000
C      -43.99500000     -35.46980000     -71.59080000
H      -43.24690000     -36.24190000     -71.80950000
H      -44.96060000     -35.67560000     -72.08370000
C      -44.17780000     -35.22030000     -70.14770000
C      -43.29010000     -35.86010000     -69.25840000
C      -45.18790000     -34.46680000     -69.44070000
H      -42.46120000     -36.42970000     -69.60560000
C      -45.06880000     -34.55140000     -68.02310000
C      -46.41270000     -33.80400000     -69.80320000
C      -47.06100000     -33.18020000     -68.80500000
S      -43.73890000     -35.63530000     -67.59770000
S      -46.26910000     -33.58140000     -67.22020000
H      -47.97230000     -32.60950000     -68.86900000
