40
Properties=species:S:1:pos:R:3 #=T CELL(abcABC):=T 1.889726e+02=T 90.00000=T Traj:=T positionsangstrom=T Step:=T 0=T Bead:=T pbc="F F F"
C      -46.75220000     -34.46320000     -73.25060000
C      -45.97300000     -35.44890000     -72.53580000
C      -46.18650000     -35.60040000     -71.17240000
C      -47.20090000     -34.80720000     -70.49320000
C      -47.91240000     -33.82810000     -71.19870000
C      -47.69990000     -33.67560000     -72.61480000
H      -46.53070000     -34.37260000     -74.32160000
H      -45.69140000     -36.31580000     -70.56560000
H      -48.65570000     -33.34040000     -70.69780000
H      -48.20510000     -32.83240000     -73.09180000
C      -47.52280000     -35.09130000     -69.08860000
H      -47.32140000     -36.16860000     -68.85670000
H      -48.53510000     -34.85420000     -68.75610000
C      -44.90870000     -36.25680000     -73.24430000
H      -44.83840000     -37.26270000     -72.73830000
H      -45.27710000     -36.52580000     -74.26690000
S      -46.45410000     -34.14790000     -67.84500000
S      -43.25070000     -35.50160000     -73.53510000
C      -44.71570000     -34.12860000     -68.62990000
H      -44.23080000     -34.79490000     -67.92070000
H      -44.59840000     -34.68080000     -69.53720000
C      -42.78910000     -35.06460000     -71.74470000
H      -41.90420000     -35.58000000     -71.44690000
H      -43.67630000     -35.39060000     -71.22840000
C      -42.48120000     -33.57620000     -71.59300000
H      -42.26460000     -33.34320000     -70.51830000
H      -41.54240000     -33.40290000     -72.01950000
C      -44.16110000     -32.71490000     -68.67850000
H      -43.06240000     -32.72190000     -68.85190000
H      -44.47270000     -32.14500000     -67.71840000
C      -44.79710000     -31.94110000     -69.82790000
C      -45.81320000     -31.07030000     -69.46600000
C      -44.51920000     -32.01880000     -71.18560000
H      -46.02070000     -30.83840000     -68.42230000
C      -45.39450000     -31.19630000     -71.94630000
C      -43.53260000     -32.65130000     -72.07990000
C      -43.65380000     -32.25560000     -73.39850000
S      -46.43160000     -30.28120000     -70.84330000
S      -45.09170000     -31.24260000     -73.69270000
H      -42.93760000     -32.55220000     -74.20120000
