40
Properties=species:S:1:pos:R:3 #=T CELL(abcABC):=T 1.889726e+02=T 90.00000=T Traj:=T positionsangstrom=T Step:=T 0=T Bead:=T pbc="F F F"
C      -46.84370000     -35.74200000     -68.24780000
C      -47.30640000     -35.36480000     -69.50840000
C      -47.81870000     -34.10510000     -69.74910000
C      -47.82430000     -33.16880000     -68.68270000
C      -47.23940000     -33.49870000     -67.41540000
C      -46.72060000     -34.79280000     -67.22450000
H      -46.49420000     -36.79360000     -68.20140000
H      -48.16050000     -33.82770000     -70.73200000
H      -47.31670000     -32.74180000     -66.66760000
H      -46.15590000     -35.07380000     -66.31460000
C      -48.32390000     -31.78110000     -68.89500000
H      -47.74670000     -30.93190000     -68.34610000
H      -49.36900000     -31.77690000     -68.36280000
C      -47.35610000     -36.38400000     -70.64980000
H      -47.96960000     -37.22600000     -70.29600000
H      -47.78290000     -36.00200000     -71.52590000
S      -48.53500000     -31.28960000     -70.63100000
S      -45.62690000     -37.06040000     -70.94570000
C      -46.84660000     -30.99260000     -71.29740000
H      -46.92490000     -30.26930000     -72.05620000
H      -46.29580000     -30.52930000     -70.43330000
C      -44.54910000     -35.62720000     -71.39020000
H      -43.48540000     -35.95260000     -71.14030000
H      -44.57990000     -34.70820000     -70.70940000
C      -44.67420000     -35.16710000     -72.88110000
H      -44.55440000     -36.03060000     -73.59710000
H      -45.68820000     -34.74370000     -73.15240000
C      -46.02160000     -32.18550000     -71.82610000
H      -46.65690000     -32.61300000     -72.59910000
H      -46.01180000     -33.03980000     -71.13550000
C      -44.68330000     -31.85510000     -72.29540000
C      -44.19110000     -30.57190000     -72.30410000
C      -43.66950000     -32.74770000     -72.92970000
H      -44.82350000     -29.72790000     -71.95660000
C      -42.46300000     -32.07020000     -73.20220000
C      -43.59150000     -34.14420000     -73.18120000
C      -42.51790000     -34.43630000     -73.99450000
S      -42.55840000     -30.34940000     -72.84520000
S      -41.31680000     -33.21010000     -74.03490000
H      -42.29710000     -35.46340000     -74.24970000
