40
Properties=species:S:1:pos:R:3 #=T CELL(abcABC):=T 1.889726e+02=T 90.00000=T Traj:=T positionsangstrom=T Step:=T 0=T Bead:=T pbc="F F F"
C      -45.66090000     -34.96390000     -68.24850000
C      -46.81900000     -35.04280000     -69.00410000
C      -47.57670000     -33.85500000     -69.12090000
C      -47.19890000     -32.65120000     -68.55860000
C      -46.03610000     -32.63780000     -67.74320000
C      -45.27520000     -33.80250000     -67.57460000
H      -45.10050000     -35.97240000     -68.00420000
H      -48.41990000     -33.88710000     -69.81420000
H      -45.85200000     -31.73590000     -67.11240000
H      -44.45270000     -33.75640000     -66.90840000
C      -48.09110000     -31.43090000     -68.70960000
H      -47.62280000     -30.60240000     -68.18380000
H      -49.14850000     -31.58100000     -68.43590000
C      -47.33900000     -36.25730000     -69.70950000
H      -47.83640000     -36.95950000     -69.01550000
H      -48.14790000     -36.01210000     -70.46860000
S      -48.30990000     -30.98730000     -70.52970000
S      -46.15090000     -37.34010000     -70.57900000
C      -46.56710000     -30.66480000     -71.08310000
H      -46.56230000     -29.71070000     -71.64500000
H      -45.94350000     -30.54260000     -70.16710000
C      -44.80650000     -36.29390000     -71.32090000
H      -44.13980000     -36.99850000     -71.80470000
H      -44.23340000     -35.79110000     -70.56180000
C      -45.30290000     -35.29340000     -72.43120000
H      -45.69190000     -35.98360000     -73.16360000
H      -46.25990000     -34.76670000     -72.14060000
C      -46.18930000     -31.89970000     -71.96430000
H      -46.94210000     -32.16520000     -72.68080000
H      -46.04390000     -32.72280000     -71.30200000
C      -44.89240000     -31.79310000     -72.68320000
C      -44.28730000     -30.57960000     -72.97460000
C      -44.06670000     -32.92640000     -73.10490000
H      -44.71590000     -29.56220000     -72.97810000
C      -42.90700000     -32.54280000     -73.76840000
C      -44.16400000     -34.34430000     -72.95100000
C      -43.05800000     -34.96330000     -73.46460000
S      -42.73540000     -30.78630000     -73.91330000
S      -41.81300000     -33.88760000     -74.02210000
H      -42.90920000     -36.05290000     -73.41030000
