40
Properties=species:S:1:pos:R:3 #=T CELL(abcABC):=T 1.889726e+02=T 90.00000=T Traj:=T positionsangstrom=T Step:=T 0=T Bead:=T pbc="F F F"
C      -46.59810000     -35.72140000     -68.03470000
C      -47.18670000     -35.48950000     -69.29650000
C      -47.70080000     -34.20020000     -69.56420000
C      -47.54410000     -33.14130000     -68.62820000
C      -46.84180000     -33.39100000     -67.41220000
C      -46.40620000     -34.67490000     -67.12900000
H      -46.21490000     -36.68730000     -67.82430000
H      -48.25450000     -33.99950000     -70.47320000
H      -46.68860000     -32.60200000     -66.75960000
H      -45.78290000     -34.89980000     -66.21470000
C      -48.18490000     -31.69330000     -68.87380000
H      -47.60490000     -30.96720000     -68.34690000
H      -49.15690000     -31.75090000     -68.34400000
C      -47.40080000     -36.63020000     -70.28470000
H      -47.91860000     -37.39420000     -69.74100000
H      -48.03670000     -36.44030000     -71.20310000
S      -48.38490000     -31.17480000     -70.60860000
S      -45.88830000     -37.33560000     -71.13760000
C      -46.70840000     -30.70580000     -71.19740000
H      -46.71590000     -29.82090000     -71.87220000
H      -46.18300000     -30.47000000     -70.22680000
C      -44.75130000     -35.82740000     -71.43530000
H      -43.72600000     -36.19410000     -71.43480000
H      -45.02420000     -35.26550000     -70.55470000
C      -45.00110000     -35.05350000     -72.75900000
H      -44.93130000     -35.76630000     -73.59010000
H      -45.96930000     -34.62850000     -72.78010000
C      -45.99380000     -31.84590000     -71.98040000
H      -46.70550000     -32.11950000     -72.75990000
H      -46.00640000     -32.69350000     -71.27190000
C      -44.60820000     -31.56520000     -72.46420000
C      -44.22070000     -30.28590000     -72.79710000
C      -43.75180000     -32.63470000     -72.82860000
H      -44.74430000     -29.33870000     -72.55610000
C      -42.58790000     -32.14630000     -73.40390000
C      -43.85580000     -34.07960000     -73.02940000
C      -42.68090000     -34.62250000     -73.43990000
S      -42.56440000     -30.35060000     -73.42760000
S      -41.43450000     -33.41930000     -73.75950000
H      -42.52990000     -35.65710000     -73.66500000
