40
Properties=species:S:1:pos:R:3 #=T CELL(abcABC):=T 1.889726e+02=T 90.00000=T Traj:=T positionsangstrom=T Step:=T 0=T Bead:=T pbc="F F F"
C      -45.75780000     -35.13440000     -68.27070000
C      -46.86050000     -35.04060000     -69.13410000
C      -47.55650000     -33.82520000     -69.21090000
C      -47.15820000     -32.67850000     -68.52910000
C      -46.10910000     -32.84170000     -67.60090000
C      -45.39280000     -34.02000000     -67.53990000
H      -45.11530000     -36.07480000     -68.32630000
H      -48.52890000     -33.77750000     -69.71720000
H      -45.66610000     -32.01310000     -67.05080000
H      -44.45120000     -33.99560000     -66.98280000
C      -47.74700000     -31.33700000     -68.64960000
H      -47.06980000     -30.59950000     -68.14700000
H      -48.69950000     -31.25050000     -68.08740000
C      -47.41640000     -36.22020000     -69.94490000
H      -48.09240000     -36.79960000     -69.24590000
H      -48.05160000     -35.87890000     -70.69540000
S      -48.34870000     -30.90730000     -70.32740000
S      -46.12590000     -37.30960000     -70.70050000
C      -46.83150000     -30.71140000     -71.38650000
H      -47.24240000     -30.11640000     -72.20100000
H      -46.07960000     -30.15300000     -70.85860000
C      -44.80910000     -36.20670000     -71.32190000
H      -44.22030000     -36.99020000     -71.84820000
H      -44.22870000     -35.77250000     -70.42910000
C      -45.22700000     -35.15200000     -72.39050000
H      -45.72520000     -35.52130000     -73.29430000
H      -45.90120000     -34.42260000     -71.92130000
C      -46.24900000     -32.05610000     -71.93430000
H      -47.02060000     -32.48360000     -72.60280000
H      -46.21690000     -32.75550000     -71.07410000
C      -44.95150000     -31.91270000     -72.65290000
C      -44.45860000     -30.74280000     -73.18060000
C      -44.00660000     -32.95760000     -73.03120000
H      -44.95250000     -29.73300000     -73.30680000
C      -42.82460000     -32.47860000     -73.56050000
C      -44.01670000     -34.37130000     -72.90890000
C      -42.90720000     -34.92470000     -73.46160000
S      -42.78960000     -30.79010000     -73.78170000
S      -41.73200000     -33.75900000     -74.07770000
H      -42.66990000     -35.97790000     -73.49670000
