40
Properties=species:S:1:pos:R:3 #=T CELL(abcABC):=T 1.889726e+02=T 90.00000=T Traj:=T positionsangstrom=T Step:=T 0=T Bead:=T pbc="F F F"
C      -48.82130000     -32.21980000     -71.44080000
C      -47.75100000     -33.17120000     -71.46020000
C      -46.86440000     -33.23240000     -70.45120000
C      -46.94730000     -32.29400000     -69.34470000
C      -48.01600000     -31.43480000     -69.26200000
C      -48.94960000     -31.39680000     -70.29900000
H      -49.49160000     -32.06920000     -72.28070000
H      -46.13650000     -34.06700000     -70.45420000
H      -47.97220000     -30.67750000     -68.55540000
H      -49.76080000     -30.67780000     -70.28980000
C      -45.91290000     -32.36820000     -68.26190000
H      -45.33840000     -33.30750000     -68.32240000
H      -46.38420000     -32.11240000     -67.33600000
C      -47.65570000     -34.17970000     -72.52670000
H      -47.00500000     -35.01890000     -72.26350000
H      -48.67050000     -34.67290000     -72.81330000
S      -44.68650000     -31.00240000     -68.50750000
S      -47.20120000     -33.35310000     -74.07550000
C      -44.22990000     -30.95260000     -70.36380000
H      -45.19180000     -31.26530000     -70.99900000
H      -43.98370000     -29.91740000     -70.72500000
C      -45.77840000     -32.17350000     -73.69770000
H      -45.89550000     -31.84810000     -72.71870000
H      -46.07550000     -31.26050000     -74.26190000
C      -44.34190000     -32.57650000     -73.99920000
H      -44.13920000     -32.78620000     -75.08790000
H      -43.70120000     -31.63110000     -73.81600000
C      -42.96370000     -31.84450000     -70.68120000
H      -42.15150000     -31.64010000     -69.98320000
H      -42.69470000     -31.64090000     -71.68790000
C      -43.28330000     -33.29260000     -70.67400000
C      -42.97730000     -34.16290000     -69.65270000
C      -43.84930000     -34.09440000     -71.86070000
H      -42.44640000     -33.73110000     -68.75140000
C      -43.80290000     -35.43370000     -71.53090000
C      -44.02490000     -33.89070000     -73.26270000
C      -44.19450000     -35.07690000     -73.98130000
S      -43.30000000     -35.88850000     -69.94060000
S      -44.04390000     -36.47450000     -72.84620000
H      -44.40050000     -35.30980000     -75.02250000
