40
Properties=species:S:1:pos:R:3 #=T CELL(abcABC):=T 1.889726e+02=T 90.00000=T Traj:=T positionsangstrom=T Step:=T 0=T Bead:=T pbc="F F F"
C      -47.48970000     -34.95450000     -73.98240000
C      -48.01420000     -34.54310000     -72.74820000
C      -48.04470000     -33.21690000     -72.35400000
C      -47.51940000     -32.24330000     -73.21640000
C      -46.85290000     -32.68550000     -74.35770000
C      -46.75400000     -34.02410000     -74.69480000
H      -47.53380000     -35.96690000     -74.26090000
H      -48.38040000     -32.92050000     -71.39060000
H      -46.51300000     -31.91080000     -75.05350000
H      -46.13220000     -34.30070000     -75.62120000
C      -47.80300000     -30.76270000     -72.91260000
H      -48.86640000     -30.57590000     -72.97930000
H      -47.29760000     -30.07980000     -73.62780000
C      -48.79760000     -35.44140000     -71.77130000
H      -49.81860000     -34.95110000     -71.57730000
H      -49.06330000     -36.36580000     -72.40990000
S      -47.33600000     -30.00790000     -71.27660000
S      -47.94390000     -35.91470000     -70.13520000
C      -45.52620000     -30.32760000     -71.35530000
H      -45.40080000     -30.34180000     -72.45540000
H      -45.00870000     -29.46840000     -70.85800000
C      -46.15120000     -35.40760000     -70.49010000
H      -46.14770000     -34.84290000     -71.34300000
H      -45.59570000     -36.35760000     -70.78020000
C      -45.44390000     -34.79410000     -69.28490000
H      -45.76030000     -33.94650000     -68.72850000
H      -45.47400000     -35.58560000     -68.47980000
C      -45.14710000     -31.62440000     -70.63080000
H      -45.83450000     -32.36460000     -71.04620000
H      -45.32540000     -31.49520000     -69.56110000
C      -43.79170000     -32.23500000     -70.76780000
C      -42.76630000     -31.48560000     -71.28280000
C      -43.40780000     -33.56250000     -70.39410000
H      -42.79050000     -30.54010000     -71.80780000
C      -42.06400000     -33.70320000     -70.51080000
C      -43.93700000     -34.67030000     -69.61780000
C      -43.08020000     -35.65150000     -69.39160000
S      -41.28220000     -32.29850000     -71.28970000
S      -41.43580000     -35.20530000     -69.87400000
H      -43.21050000     -36.52550000     -68.72140000
