40
Properties=species:S:1:pos:R:3 #=T CELL(abcABC):=T 1.889726e+02=T 90.00000=T Traj:=T positionsangstrom=T Step:=T 0=T Bead:=T pbc="F F F"
C      -45.92120000     -34.59350000     -67.32940000
C      -46.64460000     -34.66260000     -68.54810000
C      -47.28430000     -33.51220000     -68.97930000
C      -47.03570000     -32.28190000     -68.33550000
C      -46.20080000     -32.16630000     -67.25080000
C      -45.60170000     -33.37180000     -66.78550000
H      -45.24500000     -35.39160000     -67.09120000
H      -47.74370000     -33.39320000     -69.99820000
H      -45.92230000     -31.24740000     -66.75890000
H      -44.96910000     -33.41560000     -65.94050000
C      -47.69240000     -30.99990000     -68.87370000
H      -47.12630000     -30.07250000     -68.64590000
H      -48.66450000     -30.84290000     -68.45990000
C      -46.96310000     -36.02590000     -69.12340000
H      -47.36190000     -36.69230000     -68.40690000
H      -47.75900000     -35.89230000     -69.80260000
S      -48.05970000     -30.98740000     -70.66570000
S      -45.49380000     -36.87920000     -69.91730000
C      -46.41600000     -30.77780000     -71.54110000
H      -46.67350000     -30.48240000     -72.57770000
H      -45.93710000     -29.96890000     -71.08540000
C      -44.81700000     -35.52330000     -70.88760000
H      -43.71450000     -35.64840000     -71.08640000
H      -44.97600000     -34.59750000     -70.33170000
C      -45.45050000     -35.45310000     -72.29650000
H      -45.38440000     -36.48390000     -72.70870000
H      -46.49440000     -35.01660000     -72.34360000
C      -45.59630000     -32.04300000     -71.43170000
H      -46.10150000     -32.92660000     -71.47200000
H      -45.06320000     -32.02540000     -70.50030000
C      -44.48730000     -32.14710000     -72.45450000
C      -43.81100000     -31.01140000     -72.75910000
C      -44.21330000     -33.28330000     -73.26680000
H      -43.95200000     -29.96480000     -72.53240000
C      -43.34340000     -32.93610000     -74.35900000
C      -44.49230000     -34.73210000     -73.28590000
C      -44.00520000     -35.35390000     -74.41440000
S      -42.75020000     -31.35360000     -74.16440000
S      -42.89850000     -34.31630000     -75.33880000
H      -43.91120000     -36.42910000     -74.61060000
