40
Properties=species:S:1:pos:R:3 #=T CELL(abcABC):=T 1.889726e+02=T 90.00000=T Traj:=T positionsangstrom=T Step:=T 0=T Bead:=T pbc="F F F"
C      -45.75340000     -34.71850000     -67.85510000
C      -46.82310000     -34.87750000     -68.74250000
C      -47.61900000     -33.74180000     -69.05330000
C      -47.27040000     -32.42630000     -68.63610000
C      -46.15520000     -32.30010000     -67.76090000
C      -45.36060000     -33.44020000     -67.45090000
H      -45.19550000     -35.55980000     -67.51340000
H      -48.54780000     -33.89310000     -69.64530000
H      -46.00070000     -31.30140000     -67.41960000
H      -44.54210000     -33.41880000     -66.72760000
C      -48.15480000     -31.24390000     -68.93180000
H      -47.70250000     -30.33690000     -68.52380000
H      -49.13520000     -31.39360000     -68.52050000
C      -47.19630000     -36.21160000     -69.34510000
H      -47.42030000     -37.02070000     -68.57600000
H      -48.06850000     -36.02360000     -69.94020000
S      -48.35880000     -30.91640000     -70.70710000
S      -45.87840000     -37.11120000     -70.25150000
C      -46.57230000     -30.80060000     -71.30470000
H      -46.58440000     -29.99300000     -72.03200000
H      -46.03030000     -30.49440000     -70.46570000
C      -44.87990000     -35.84940000     -71.18970000
H      -43.89270000     -36.35210000     -71.35790000
H      -44.67920000     -34.94570000     -70.60340000
C      -45.35240000     -35.42240000     -72.60880000
H      -45.58330000     -36.34750000     -73.19830000
H      -46.30410000     -34.88580000     -72.45270000
C      -46.07020000     -32.07730000     -71.83700000
H      -46.76990000     -32.52350000     -72.52270000
H      -46.01810000     -32.80560000     -70.96010000
C      -44.72880000     -31.94110000     -72.47630000
C      -43.91780000     -30.80770000     -72.62240000
C      -44.06950000     -33.11220000     -73.19040000
H      -44.17910000     -29.77280000     -72.38570000
C      -42.88510000     -32.78750000     -73.84930000
C      -44.33740000     -34.51880000     -73.22190000
C      -43.43980000     -35.21240000     -73.98780000
S      -42.54920000     -31.01660000     -73.69750000
S      -42.08790000     -34.17230000     -74.54180000
H      -43.51430000     -36.29400000     -74.24590000
