40
Properties=species:S:1:pos:R:3 #=T CELL(abcABC):=T 1.889726e+02=T 90.00000=T Traj:=T positionsangstrom=T Step:=T 0=T Bead:=T pbc="F F F"
C      -45.76680000     -34.76040000     -67.39900000
C      -46.65670000     -34.87270000     -68.45890000
C      -47.32890000     -33.66220000     -68.88260000
C      -47.02260000     -32.44110000     -68.27550000
C      -46.16460000     -32.41020000     -67.12260000
C      -45.53660000     -33.58570000     -66.70220000
H      -45.04250000     -35.56060000     -67.30990000
H      -48.02690000     -33.82170000     -69.69960000
H      -45.92240000     -31.49570000     -66.61530000
H      -44.88890000     -33.42710000     -65.86640000
C      -47.49730000     -31.18360000     -68.89860000
H      -46.71860000     -30.48220000     -68.76230000
H      -48.38790000     -30.89700000     -68.44380000
C      -46.82260000     -36.17590000     -69.15600000
H      -47.39150000     -36.87340000     -68.45710000
H      -47.48460000     -36.14390000     -70.04200000
S      -47.81700000     -31.28590000     -70.72500000
S      -45.23690000     -36.81280000     -69.76490000
C      -46.31710000     -30.60190000     -71.41000000
H      -46.57070000     -30.40050000     -72.46590000
H      -46.05190000     -29.63310000     -70.94530000
C      -44.64080000     -35.28770000     -70.65680000
H      -43.62600000     -35.59300000     -71.02030000
H      -44.46870000     -34.41860000     -70.02660000
C      -45.61440000     -34.90610000     -71.80880000
H      -46.22430000     -35.72640000     -72.10670000
H      -46.22030000     -34.08820000     -71.39410000
C      -45.04690000     -31.55400000     -71.31610000
H      -45.23790000     -32.54820000     -70.90690000
H      -44.45010000     -31.09300000     -70.61830000
C      -44.34640000     -31.83700000     -72.55250000
C      -43.57620000     -30.92670000     -73.22050000
C      -44.29170000     -33.10310000     -73.30180000
H      -43.25400000     -29.98650000     -72.73760000
C      -43.41420000     -32.98950000     -74.45560000
C      -44.85470000     -34.38590000     -73.09890000
C      -44.59330000     -35.21660000     -74.17190000
S      -42.84380000     -31.36050000     -74.69800000
S      -43.55080000     -34.50880000     -75.37140000
H      -44.97190000     -36.19750000     -74.20540000
