40
Properties=species:S:1:pos:R:3 #=T CELL(abcABC):=T 1.889726e+02=T 90.00000=T Traj:=T positionsangstrom=T Step:=T 0=T Bead:=T pbc="F F F"
C      -45.62090000     -34.54890000     -67.87690000
C      -46.63130000     -34.60940000     -68.84580000
C      -47.40680000     -33.52080000     -69.16950000
C      -47.18900000     -32.31050000     -68.49290000
C      -46.21410000     -32.21690000     -67.50550000
C      -45.42790000     -33.34510000     -67.24880000
H      -45.07390000     -35.41930000     -67.85680000
H      -48.16580000     -33.66490000     -69.96290000
H      -45.97090000     -31.21270000     -67.16650000
H      -44.59930000     -33.37450000     -66.44910000
C      -48.02580000     -31.12690000     -68.88340000
H      -47.57260000     -30.12010000     -68.54640000
H      -49.02980000     -31.16780000     -68.39480000
C      -47.05790000     -35.91410000     -69.45100000
H      -47.58800000     -36.51030000     -68.72530000
H      -47.86110000     -35.72030000     -70.23980000
S      -48.41530000     -31.00730000     -70.74360000
S      -45.81030000     -37.01420000     -70.25050000
C      -46.72200000     -30.92470000     -71.41660000
H      -46.85160000     -30.44310000     -72.43670000
H      -46.12290000     -30.20520000     -70.78770000
C      -44.80550000     -35.70580000     -71.09250000
H      -43.86720000     -36.13100000     -71.06450000
H      -44.76340000     -34.79420000     -70.62480000
C      -45.35590000     -35.50330000     -72.52450000
H      -45.52890000     -36.45130000     -73.03600000
H      -46.18070000     -34.77870000     -72.51310000
C      -46.02400000     -32.25120000     -71.61710000
H      -46.70130000     -33.01870000     -72.07870000
H      -45.70910000     -32.63150000     -70.66290000
C      -44.79290000     -32.16010000     -72.51000000
C      -44.02950000     -31.01350000     -72.54880000
C      -44.12000000     -33.29200000     -73.17700000
H      -44.41710000     -30.10760000     -72.14630000
C      -42.98350000     -32.87340000     -73.81800000
C      -44.31350000     -34.68570000     -73.32160000
C      -43.35390000     -35.25970000     -74.15740000
S      -42.61450000     -31.24320000     -73.55770000
S      -42.25540000     -34.07750000     -74.79930000
H      -43.22170000     -36.31510000     -74.36720000
