40
Properties=species:S:1:pos:R:3 #=T CELL(abcABC):=T 1.889726e+02=T 90.00000=T Traj:=T positionsangstrom=T Step:=T 0=T Bead:=T pbc="F F F"
C      -45.14880000     -34.82400000     -67.31280000
C      -46.18790000     -34.82830000     -68.22270000
C      -46.85760000     -33.66010000     -68.63510000
C      -46.47030000     -32.41960000     -68.12720000
C      -45.35760000     -32.32960000     -67.31880000
C      -44.75350000     -33.49670000     -66.93740000
H      -44.51280000     -35.65130000     -66.94900000
H      -47.72730000     -33.72980000     -69.24930000
H      -45.16610000     -31.44330000     -66.74040000
H      -43.91500000     -33.49630000     -66.16340000
C      -47.16120000     -31.13300000     -68.60280000
H      -46.39740000     -30.36730000     -68.57210000
H      -48.00830000     -30.88740000     -67.92450000
C      -46.57900000     -36.12850000     -68.79690000
H      -46.60370000     -36.87230000     -67.99170000
H      -47.53360000     -36.17580000     -69.39630000
S      -47.85970000     -31.12070000     -70.29910000
S      -45.14300000     -36.77320000     -69.91020000
C      -46.31150000     -30.78330000     -71.26850000
H      -46.66760000     -30.58100000     -72.28140000
H      -45.83790000     -29.91030000     -70.88720000
C      -44.64680000     -35.26830000     -70.91740000
H      -43.63540000     -35.40500000     -71.26320000
H      -44.42690000     -34.45290000     -70.23120000
C      -45.69520000     -35.16530000     -72.03380000
H      -46.07610000     -36.13510000     -72.36230000
H      -46.60820000     -34.65590000     -71.62210000
C      -45.21920000     -31.93190000     -71.21750000
H      -45.65900000     -32.90510000     -71.09290000
H      -44.53330000     -31.87940000     -70.32490000
C      -44.50060000     -31.98430000     -72.52730000
C      -43.79570000     -30.94550000     -73.10300000
C      -44.49940000     -33.16920000     -73.34620000
H      -43.68010000     -29.95540000     -72.57460000
C      -43.94880000     -32.94630000     -74.58730000
C      -45.11550000     -34.47960000     -73.29210000
C      -45.03080000     -35.16110000     -74.49590000
S      -43.22040000     -31.37630000     -74.70470000
S      -44.13380000     -34.34440000     -75.73620000
H      -45.41350000     -36.13720000     -74.83900000
