40
Properties=species:S:1:pos:R:3 #=T CELL(abcABC):=T 1.889726e+02=T 90.00000=T Traj:=T positionsangstrom=T Step:=T 0=T Bead:=T pbc="F F F"
C      -44.66830000     -34.55330000     -67.77270000
C      -45.87680000     -34.69480000     -68.43080000
C      -46.65280000     -33.56080000     -68.63470000
C      -46.34750000     -32.30930000     -68.02560000
C      -45.13400000     -32.22080000     -67.29730000
C      -44.31130000     -33.32510000     -67.26960000
H      -44.09510000     -35.43560000     -67.66440000
H      -47.67000000     -33.71970000     -69.06200000
H      -44.82670000     -31.32380000     -66.73310000
H      -43.34890000     -33.19490000     -66.89620000
C      -47.30970000     -31.14870000     -68.17970000
H      -46.96350000     -30.18210000     -67.90550000
H      -48.24700000     -31.33900000     -67.62200000
C      -46.52040000     -35.90550000     -69.04570000
H      -46.93500000     -36.59190000     -68.32260000
H      -47.30870000     -35.54690000     -69.71760000
S      -47.85850000     -30.99020000     -69.93120000
S      -45.32130000     -36.98140000     -70.04300000
C      -46.26850000     -30.90580000     -71.05900000
H      -46.66740000     -30.75870000     -72.12810000
H      -45.84970000     -30.00150000     -70.77260000
C      -44.81320000     -35.79140000     -71.33380000
H      -43.90050000     -36.18350000     -71.81790000
H      -44.37260000     -34.94520000     -70.84300000
C      -45.93070000     -35.34330000     -72.34600000
H      -46.41470000     -36.18710000     -72.81020000
H      -46.65020000     -34.80510000     -71.78200000
C      -45.41750000     -32.13920000     -71.05480000
H      -46.17530000     -32.97990000     -70.93630000
H      -44.83310000     -32.28990000     -70.11270000
C      -44.65180000     -32.20530000     -72.35150000
C      -43.99210000     -31.08580000     -72.78690000
C      -44.62150000     -33.26140000     -73.36140000
H      -43.88920000     -30.12030000     -72.34570000
C      -43.87590000     -32.91420000     -74.51970000
C      -45.19490000     -34.61180000     -73.46630000
C      -45.00120000     -35.15410000     -74.70290000
S      -43.44400000     -31.27880000     -74.51860000
S      -43.96280000     -34.14960000     -75.75820000
H      -45.18330000     -36.19020000     -75.02510000
