40
Properties=species:S:1:pos:R:3 #=T CELL(abcABC):=T 1.889726e+02=T 90.00000=T Traj:=T positionsangstrom=T Step:=T 0=T Bead:=T pbc="F F F"
C      -48.85700000     -31.44140000     -71.89100000
C      -48.12090000     -32.60660000     -71.87400000
C      -47.22820000     -32.88280000     -70.79630000
C      -46.94510000     -31.89400000     -69.84370000
C      -47.69930000     -30.68420000     -69.90610000
C      -48.73310000     -30.53810000     -70.87410000
H      -49.41930000     -31.15580000     -72.70400000
H      -46.88330000     -33.87010000     -70.64730000
H      -47.53910000     -29.94140000     -69.18910000
H      -49.37150000     -29.63130000     -70.82510000
C      -46.01560000     -32.11660000     -68.72250000
H      -45.61130000     -33.13190000     -68.81430000
H      -46.53920000     -31.95400000     -67.78690000
C      -48.24010000     -33.57680000     -72.96580000
H      -48.02440000     -34.47570000     -72.48870000
H      -49.29370000     -33.60030000     -73.37330000
S      -44.46980000     -31.08320000     -68.88270000
S      -46.94880000     -33.48340000     -74.40120000
C      -44.08550000     -31.32780000     -70.70460000
H      -44.95120000     -31.82840000     -71.16180000
H      -44.17890000     -30.33360000     -71.18400000
C      -45.58550000     -32.39660000     -73.79340000
H      -45.86680000     -32.06820000     -72.79950000
H      -45.62370000     -31.47720000     -74.40860000
C      -44.24140000     -33.15890000     -73.70670000
H      -43.98140000     -33.41000000     -74.71650000
H      -43.55360000     -32.42720000     -73.36700000
C      -42.82610000     -32.10010000     -70.86020000
H      -42.02300000     -31.80530000     -70.13580000
H      -42.34770000     -32.00960000     -71.86310000
C      -43.05770000     -33.55670000     -70.59480000
C      -42.63130000     -34.19220000     -69.41430000
C      -43.83810000     -34.38180000     -71.38740000
H      -41.95530000     -33.80930000     -68.67440000
C      -43.92220000     -35.69910000     -70.88970000
C      -44.26410000     -34.34160000     -72.76980000
C      -44.68930000     -35.59090000     -73.26060000
S      -43.11080000     -35.82270000     -69.36970000
S      -44.44800000     -36.84620000     -72.05920000
H      -45.02160000     -35.85310000     -74.20090000
