40
Properties=species:S:1:pos:R:3 #=T CELL(abcABC):=T 1.889726e+02=T 90.00000=T Traj:=T positionsangstrom=T Step:=T 0=T Bead:=T pbc="F F F"
C      -44.21990000     -34.77270000     -67.84550000
C      -45.54560000     -34.69410000     -68.25510000
C      -46.17440000     -33.43140000     -68.19400000
C      -45.51250000     -32.23720000     -67.96070000
C      -44.12330000     -32.29930000     -67.74960000
C      -43.47740000     -33.56210000     -67.60600000
H      -43.70680000     -35.71620000     -67.70020000
H      -47.23240000     -33.32520000     -68.29990000
H      -43.52500000     -31.44790000     -67.74750000
H      -42.34860000     -33.55580000     -67.45980000
C      -46.18370000     -30.88540000     -68.09480000
H      -45.33880000     -30.20220000     -68.26340000
H      -46.59640000     -30.59380000     -67.11210000
C      -46.43650000     -35.83210000     -68.66370000
H      -46.62380000     -36.45370000     -67.72570000
H      -47.38020000     -35.61950000     -69.13570000
S      -47.49680000     -30.83080000     -69.35520000
S      -45.53250000     -37.06370000     -69.70310000
C      -46.45050000     -30.79720000     -71.02000000
H      -46.68740000     -29.78510000     -71.47490000
H      -45.34690000     -30.83970000     -70.83410000
C      -44.75600000     -35.94970000     -70.98890000
H      -43.90100000     -36.36680000     -71.44750000
H      -44.43420000     -35.17890000     -70.34080000
C      -45.64080000     -35.44050000     -72.10140000
H      -46.14390000     -36.25350000     -72.61310000
H      -46.48820000     -34.89110000     -71.58810000
C      -46.72110000     -32.02390000     -71.89420000
H      -47.81160000     -32.01040000     -72.09940000
H      -46.50540000     -32.91980000     -71.27610000
C      -45.91810000     -32.11770000     -73.15950000
C      -45.84690000     -31.05990000     -74.04600000
C      -45.17120000     -33.23440000     -73.58420000
H      -46.24790000     -30.06750000     -73.88430000
C      -44.47630000     -32.93700000     -74.78370000
C      -44.91440000     -34.59530000     -73.14380000
C      -43.97560000     -35.21310000     -73.95990000
S      -44.65050000     -31.30130000     -75.33900000
S      -43.40740000     -34.23360000     -75.31280000
H      -43.52290000     -36.19750000     -73.86520000
