40
Properties=species:S:1:pos:R:3 #=T CELL(abcABC):=T 1.889726e+02=T 90.00000=T Traj:=T positionsangstrom=T Step:=T 0=T Bead:=T pbc="F F F"
C      -42.80700000     -30.88090000     -70.20020000
C      -43.10080000     -31.99260000     -71.00710000
C      -43.66520000     -33.16690000     -70.37510000
C      -43.57140000     -33.40330000     -68.95810000
C      -43.12870000     -32.34930000     -68.10320000
C      -42.74080000     -31.17720000     -68.76430000
H      -42.42120000     -29.89170000     -70.49760000
H      -43.94820000     -34.09510000     -70.95430000
H      -42.80970000     -32.48630000     -67.06170000
H      -42.44050000     -30.34870000     -68.18320000
C      -44.14270000     -34.75050000     -68.52580000
H      -43.52500000     -35.18470000     -67.68390000
H      -44.10870000     -35.30490000     -69.44530000
C      -43.04990000     -31.92630000     -72.47770000
H      -42.05950000     -31.60920000     -72.77140000
H      -43.32450000     -32.91100000     -72.92130000
S      -45.89330000     -34.62840000     -67.72650000
S      -44.29360000     -30.71270000     -73.10320000
C      -46.67300000     -33.37470000     -68.71340000
H      -47.25770000     -32.85810000     -67.99870000
H      -45.99510000     -32.57180000     -69.03930000
C      -45.71230000     -30.72490000     -71.96520000
H      -46.06220000     -29.73830000     -71.74650000
H      -45.34800000     -31.13980000     -71.03930000
C      -46.96270000     -31.41080000     -72.50850000
H      -47.75410000     -31.44170000     -71.74540000
H      -47.19750000     -30.78820000     -73.32650000
C      -47.57430000     -33.73810000     -69.85970000
H      -48.16190000     -32.86470000     -70.23950000
H      -48.34650000     -34.39130000     -69.42660000
C      -47.02390000     -34.47980000     -71.04800000
C      -46.92120000     -35.87570000     -71.00540000
C      -46.72370000     -34.04850000     -72.39460000
H      -47.08740000     -36.54680000     -70.17730000
C      -46.22400000     -35.07940000     -73.22740000
C      -46.70330000     -32.75310000     -73.11800000
C      -46.18610000     -32.89300000     -74.39510000
S      -46.40180000     -36.66690000     -72.49250000
S      -45.66860000     -34.54120000     -74.83450000
H      -46.14630000     -32.10410000     -75.18220000
