40
Properties=species:S:1:pos:R:3 #=T CELL(abcABC):=T 1.889726e+02=T 90.00000=T Traj:=T positionsangstrom=T Step:=T 0=T Bead:=T pbc="F F F"
C      -49.16340000     -32.43700000     -72.16660000
C      -48.19200000     -33.45010000     -72.00640000
C      -47.15570000     -33.34860000     -71.02450000
C      -47.08760000     -32.28400000     -70.11650000
C      -48.06720000     -31.33470000     -70.23760000
C      -48.99680000     -31.33970000     -71.29070000
H      -50.03950000     -32.52200000     -72.85060000
H      -46.53940000     -34.28350000     -71.02070000
H      -47.95200000     -30.40670000     -69.75080000
H      -49.59870000     -30.42280000     -71.44630000
C      -46.02580000     -32.28970000     -69.00640000
H      -45.40530000     -33.15820000     -68.92840000
H      -46.52900000     -32.14560000     -68.06690000
C      -47.98280000     -34.63330000     -72.95100000
H      -47.48220000     -35.40720000     -72.40050000
H      -48.90410000     -35.06110000     -73.34070000
S      -44.80700000     -30.81870000     -69.27390000
S      -47.17510000     -34.02660000     -74.50510000
C      -44.57580000     -30.83130000     -71.13190000
H      -45.46420000     -31.33610000     -71.60930000
H      -44.59550000     -29.76890000     -71.47930000
C      -45.69980000     -32.98080000     -73.97890000
H      -45.91950000     -32.39170000     -73.09540000
H      -45.55130000     -32.27820000     -74.79580000
C      -44.43830000     -33.77750000     -73.82550000
H      -44.43290000     -34.49580000     -74.67850000
H      -43.49800000     -33.19090000     -73.96380000
C      -43.21790000     -31.45610000     -71.50720000
H      -42.38600000     -30.73210000     -71.41140000
H      -43.21450000     -31.49360000     -72.66100000
C      -43.04770000     -32.78900000     -70.85120000
C      -42.42180000     -32.90420000     -69.58980000
C      -43.66170000     -34.04100000     -71.35420000
H      -41.87010000     -32.18200000     -68.99180000
C      -43.47460000     -35.03840000     -70.39760000
C      -44.23630000     -34.58790000     -72.58530000
C      -44.50720000     -35.90220000     -72.44400000
S      -42.61710000     -34.53310000     -68.96740000
S      -43.94640000     -36.59960000     -70.96840000
H      -44.96190000     -36.48520000     -73.26040000
