40
Properties=species:S:1:pos:R:3 #=T CELL(abcABC):=T 1.889726e+02=T 90.00000=T Traj:=T positionsangstrom=T Step:=T 0=T Bead:=T pbc="F F F"
C      -45.51670000     -33.93780000     -73.88950000
C      -45.39350000     -35.12440000     -73.10920000
C      -46.43030000     -35.43140000     -72.16390000
C      -47.51940000     -34.49490000     -71.99080000
C      -47.58800000     -33.34980000     -72.78170000
C      -46.56270000     -33.03910000     -73.63870000
H      -44.84070000     -33.67580000     -74.75540000
H      -46.38080000     -36.35430000     -71.60380000
H      -48.39470000     -32.63150000     -72.60880000
H      -46.59790000     -32.13610000     -74.20450000
C      -48.53940000     -34.89690000     -70.95170000
H      -48.49500000     -35.92210000     -70.70500000
H      -49.54930000     -34.65160000     -71.36620000
C      -44.33040000     -36.14210000     -73.25650000
H      -44.71220000     -37.07380000     -72.89200000
H      -43.98060000     -36.25880000     -74.22160000
S      -48.28200000     -33.96170000     -69.32700000
S      -42.65780000     -35.82850000     -72.28780000
C      -46.58860000     -34.49660000     -68.76860000
H      -46.59630000     -35.16690000     -67.92480000
H      -46.18420000     -35.07840000     -69.57870000
C      -43.16750000     -35.38860000     -70.58830000
H      -42.72990000     -36.07550000     -69.90690000
H      -44.20890000     -35.57780000     -70.48020000
C      -42.72670000     -34.08530000     -70.02900000
H      -43.15730000     -33.89670000     -69.07920000
H      -41.59810000     -34.07670000     -69.84430000
C      -45.73050000     -33.22970000     -68.43860000
H      -44.81610000     -33.61380000     -68.01130000
H      -46.22790000     -32.72510000     -67.55190000
C      -45.52490000     -32.24960000     -69.51360000
C      -46.54540000     -31.42190000     -69.78010000
C      -44.45060000     -32.17990000     -70.49380000
H      -47.44230000     -31.27780000     -69.16180000
C      -44.67480000     -31.13910000     -71.39490000
C      -43.18490000     -32.82760000     -70.82750000
C      -42.54090000     -32.32790000     -71.91430000
S      -46.21300000     -30.32580000     -71.13790000
S      -43.44810000     -31.00740000     -72.60640000
H      -41.87320000     -32.83440000     -72.51670000
