40
Properties=species:S:1:pos:R:3 #=T CELL(abcABC):=T 1.889726e+02=T 90.00000=T Traj:=T positionsangstrom=T Step:=T 0=T Bead:=T pbc="F F F"
C      -44.16490000     -34.66910000     -67.82230000
C      -45.47230000     -34.68940000     -68.29310000
C      -46.15030000     -33.40850000     -68.45690000
C      -45.53260000     -32.17960000     -68.15870000
C      -44.13070000     -32.27570000     -67.80620000
C      -43.45600000     -33.47710000     -67.61650000
H      -43.64670000     -35.62490000     -67.70920000
H      -47.19470000     -33.41600000     -68.73180000
H      -43.61670000     -31.23130000     -67.67040000
H      -42.42820000     -33.45580000     -67.42660000
C      -46.28110000     -30.85420000     -68.21400000
H      -45.65760000     -29.94600000     -68.23640000
H      -46.82020000     -30.77130000     -67.28490000
C      -46.15130000     -36.04210000     -68.39000000
H      -46.09350000     -36.65450000     -67.50600000
H      -47.23950000     -35.85970000     -68.54810000
S      -47.53640000     -30.73770000     -69.54840000
S      -45.41780000     -37.14160000     -69.76280000
C      -46.46490000     -30.87530000     -71.04220000
H      -46.37650000     -29.93900000     -71.60620000
H      -45.56510000     -31.23040000     -70.56020000
C      -44.75000000     -35.95080000     -71.00290000
H      -43.85290000     -36.43880000     -71.41090000
H      -44.42800000     -34.97280000     -70.57030000
C      -45.80390000     -35.51890000     -72.08150000
H      -46.24760000     -36.44110000     -72.48040000
H      -46.63090000     -34.95960000     -71.68720000
C      -46.97690000     -31.97240000     -72.03080000
H      -47.95020000     -31.68670000     -72.41140000
H      -47.04650000     -32.92710000     -71.44740000
C      -46.00640000     -32.07400000     -73.14500000
C      -45.85840000     -31.05390000     -74.06030000
C      -45.26230000     -33.23230000     -73.52780000
H      -46.40180000     -30.11240000     -73.97720000
C      -44.41730000     -32.94590000     -74.59050000
C      -45.03920000     -34.66920000     -73.12140000
C      -44.06070000     -35.24660000     -73.86990000
S      -44.50210000     -31.29130000     -75.20290000
S      -43.43460000     -34.22380000     -75.12590000
H      -43.70780000     -36.25150000     -73.69920000
