40
Properties=species:S:1:pos:R:3 #=T CELL(abcABC):=T 1.889726e+02=T 90.00000=T Traj:=T positionsangstrom=T Step:=T 0=T Bead:=T pbc="F F F"
C      -44.08470000     -34.68740000     -67.84870000
C      -45.44010000     -34.76460000     -68.23260000
C      -46.10010000     -33.53400000     -68.40930000
C      -45.52940000     -32.27940000     -68.25000000
C      -44.20630000     -32.24450000     -67.79310000
C      -43.56030000     -33.43780000     -67.59430000
H      -43.52160000     -35.55450000     -67.60170000
H      -47.17230000     -33.61290000     -68.74670000
H      -43.70440000     -31.27790000     -67.64570000
H      -42.55440000     -33.39810000     -67.09120000
C      -46.38400000     -31.06550000     -68.22530000
H      -45.64310000     -30.27930000     -68.14420000
H      -46.88310000     -31.21480000     -67.26780000
C      -46.22660000     -35.93620000     -68.59770000
H      -46.26970000     -36.62530000     -67.67660000
H      -47.28220000     -35.83940000     -68.84800000
S      -47.53520000     -30.63110000     -69.62070000
S      -45.44290000     -37.12200000     -69.75550000
C      -46.46600000     -30.92310000     -71.06570000
H      -46.24970000     -29.97920000     -71.58210000
H      -45.48180000     -31.15990000     -70.60690000
C      -44.76790000     -35.96660000     -71.05910000
H      -44.16800000     -36.60960000     -71.75120000
H      -44.13250000     -35.28670000     -70.60380000
C      -45.86560000     -35.34180000     -71.97440000
H      -46.71660000     -36.00860000     -72.29810000
H      -46.31050000     -34.57990000     -71.34510000
C      -47.02680000     -31.99130000     -72.05400000
H      -47.92340000     -31.49440000     -72.43240000
H      -47.37850000     -32.94830000     -71.57850000
C      -46.00790000     -32.15530000     -73.14600000
C      -45.68510000     -31.01590000     -73.84990000
C      -45.20960000     -33.28880000     -73.57310000
H      -45.99910000     -29.98680000     -73.67790000
C      -44.33110000     -32.92060000     -74.61420000
C      -45.18390000     -34.70980000     -73.26960000
C      -44.20230000     -35.35370000     -73.98330000
S      -44.47070000     -31.21750000     -75.10540000
S      -43.31220000     -34.23200000     -75.04490000
H      -44.08730000     -36.43280000     -73.98140000
