40
Properties=species:S:1:pos:R:3 #=T CELL(abcABC):=T 1.889726e+02=T 90.00000=T Traj:=T positionsangstrom=T Step:=T 0=T Bead:=T pbc="F F F"
C      -48.96630000     -32.74210000     -71.85160000
C      -47.91710000     -33.64750000     -71.88890000
C      -46.98870000     -33.71510000     -70.81590000
C      -47.06450000     -32.84670000     -69.69000000
C      -48.10830000     -31.89530000     -69.76440000
C      -48.99140000     -31.86840000     -70.79930000
H      -49.75000000     -32.80590000     -72.64900000
H      -46.15180000     -34.49910000     -70.86300000
H      -48.19000000     -31.10910000     -69.06480000
H      -49.65490000     -30.95200000     -70.91810000
C      -45.88470000     -32.84430000     -68.82210000
H      -45.08530000     -33.60410000     -69.16360000
H      -46.13460000     -33.18990000     -67.77000000
C      -47.84210000     -34.50690000     -73.13530000
H      -47.27770000     -35.40480000     -72.87680000
H      -48.83800000     -34.92550000     -73.44660000
S      -45.07530000     -31.22820000     -68.52350000
S      -47.18840000     -33.62370000     -74.59350000
C      -44.56980000     -30.67920000     -70.32010000
H      -45.42150000     -31.07620000     -70.85860000
H      -44.53110000     -29.59210000     -70.19830000
C      -46.10820000     -32.28150000     -73.83120000
H      -46.55710000     -31.88900000     -72.91090000
H      -46.22890000     -31.42130000     -74.55330000
C      -44.64910000     -32.56870000     -73.68750000
H      -44.24760000     -32.63170000     -74.68150000
H      -44.13830000     -31.67600000     -73.24410000
C      -43.22650000     -31.24740000     -70.80470000
H      -42.36150000     -30.80600000     -70.22350000
H      -43.08360000     -30.99870000     -71.87220000
C      -43.10360000     -32.77690000     -70.64450000
C      -42.43290000     -33.33410000     -69.61570000
C      -43.63020000     -33.83230000     -71.52700000
H      -41.82130000     -32.81350000     -68.79160000
C      -43.37340000     -35.07700000     -70.99570000
C      -44.28170000     -33.80670000     -72.82920000
C      -44.42480000     -35.09630000     -73.24610000
S      -42.44930000     -35.13370000     -69.52960000
S      -43.97800000     -36.32980000     -72.06450000
H      -44.87490000     -35.48850000     -74.14070000
