40
Properties=species:S:1:pos:R:3 #=T CELL(abcABC):=T 1.889726e+02=T 90.00000=T Traj:=T positionsangstrom=T Step:=T 0=T Bead:=T pbc="F F F"
C      -42.69930000     -31.05050000     -70.37840000
C      -43.11410000     -32.08070000     -71.24140000
C      -43.66510000     -33.24410000     -70.66550000
C      -43.62270000     -33.38340000     -69.21550000
C      -43.06790000     -32.40270000     -68.36730000
C      -42.65720000     -31.21720000     -69.00330000
H      -42.43420000     -30.12640000     -70.92450000
H      -43.94840000     -33.98240000     -71.35180000
H      -42.92230000     -32.44290000     -67.30820000
H      -42.21580000     -30.38510000     -68.41970000
C      -44.13170000     -34.62450000     -68.58970000
H      -43.61640000     -34.81890000     -67.63550000
H      -43.87750000     -35.54400000     -69.17900000
C      -43.28080000     -31.89780000     -72.72840000
H      -42.36280000     -31.80760000     -73.32430000
H      -43.91170000     -32.71460000     -73.12340000
S      -45.91700000     -34.54360000     -68.06590000
S      -44.08370000     -30.22240000     -72.95380000
C      -46.53820000     -33.01610000     -68.99820000
H      -46.95400000     -32.32020000     -68.28960000
H      -45.80800000     -32.61230000     -69.62870000
C      -45.81000000     -30.62550000     -72.16380000
H      -46.29710000     -29.59140000     -72.00280000
H      -45.69400000     -30.97540000     -71.13540000
C      -46.77490000     -31.50410000     -72.97490000
H      -47.76280000     -31.41640000     -72.49900000
H      -47.05210000     -31.05100000     -73.95300000
C      -47.74860000     -33.36090000     -69.92550000
H      -48.14780000     -32.44370000     -70.39430000
H      -48.52180000     -33.74610000     -69.30310000
C      -47.26030000     -34.34890000     -70.92660000
C      -47.28440000     -35.67960000     -70.57680000
C      -46.68180000     -34.06470000     -72.27250000
H      -47.68040000     -36.11670000     -69.72310000
C      -46.23650000     -35.27400000     -72.82250000
C      -46.47950000     -32.95590000     -73.21520000
C      -46.03200000     -33.35660000     -74.39210000
S      -46.52110000     -36.67450000     -71.82750000
S      -45.64020000     -35.12830000     -74.50610000
H      -45.75240000     -32.81550000     -75.22270000
