40
Properties=species:S:1:pos:R:3 #=T CELL(abcABC):=T 1.889726e+02=T 90.00000=T Traj:=T positionsangstrom=T Step:=T 0=T Bead:=T pbc="F F F"
C      -49.20220000     -32.77920000     -71.68010000
C      -48.11950000     -33.64270000     -71.93290000
C      -47.05160000     -33.71680000     -71.01900000
C      -47.08230000     -32.97670000     -69.83260000
C      -48.11800000     -32.04130000     -69.63710000
C      -49.22630000     -32.06090000     -70.49050000
H      -49.99450000     -32.62250000     -72.48660000
H      -46.27960000     -34.45560000     -71.27100000
H      -48.05000000     -31.40580000     -68.70270000
H      -50.02610000     -31.48970000     -70.21280000
C      -45.94440000     -33.02750000     -68.82170000
H      -45.36670000     -33.88310000     -69.04000000
H      -46.36500000     -33.21870000     -67.80560000
C      -47.97130000     -34.51650000     -73.10960000
H      -47.35980000     -35.43070000     -72.98150000
H      -48.98050000     -34.72940000     -73.42010000
S      -45.05480000     -31.38400000     -68.66800000
S      -47.18820000     -33.68390000     -74.56040000
C      -44.71350000     -30.88970000     -70.38160000
H      -45.45850000     -31.41810000     -71.03450000
H      -45.00210000     -29.77260000     -70.49110000
C      -46.11780000     -32.36380000     -73.77860000
H      -46.35320000     -32.04650000     -72.74720000
H      -46.34980000     -31.43550000     -74.28630000
C      -44.55010000     -32.64070000     -73.73990000
H      -44.17300000     -32.93260000     -74.74590000
H      -44.09420000     -31.65520000     -73.54540000
C      -43.25990000     -31.13920000     -70.89740000
H      -42.56500000     -30.44500000     -70.38790000
H      -43.28190000     -30.76690000     -71.93920000
C      -42.88440000     -32.63840000     -70.72160000
C      -42.32210000     -33.04700000     -69.57670000
C      -43.41760000     -33.68840000     -71.59400000
H      -42.05750000     -32.30230000     -68.85640000
C      -43.18110000     -34.97210000     -71.06090000
C      -44.13250000     -33.76830000     -72.81270000
C      -44.52120000     -35.09710000     -73.21170000
S      -42.33390000     -34.89660000     -69.49730000
S      -43.94990000     -36.24360000     -71.97690000
H      -44.80710000     -35.42580000     -74.18510000
