40
Properties=species:S:1:pos:R:3 #=T CELL(abcABC):=T 1.889726e+02=T 90.00000=T Traj:=T positionsangstrom=T Step:=T 0=T Bead:=T pbc="F F F"
C      -45.28790000     -34.11110000     -73.67980000
C      -45.27190000     -35.38370000     -73.11540000
C      -46.34500000     -35.73880000     -72.29910000
C      -47.48410000     -34.93020000     -72.18530000
C      -47.46310000     -33.65690000     -72.78630000
C      -46.32690000     -33.22900000     -73.50100000
H      -44.46680000     -33.73360000     -74.37710000
H      -46.33460000     -36.73970000     -71.86290000
H      -48.24400000     -32.96140000     -72.60270000
H      -46.18500000     -32.20380000     -73.87610000
C      -48.52250000     -35.27370000     -71.21880000
H      -48.47270000     -36.34050000     -71.00890000
H      -49.52710000     -35.11960000     -71.63350000
C      -44.10580000     -36.30700000     -73.45420000
H      -44.41310000     -37.31420000     -73.24510000
H      -43.82360000     -36.20990000     -74.43710000
S      -48.52010000     -34.34100000     -69.61320000
S      -42.73330000     -35.69000000     -72.41160000
C      -46.77550000     -34.50900000     -68.97990000
H      -46.76000000     -35.18640000     -68.07600000
H      -46.26130000     -35.03410000     -69.75540000
C      -43.35810000     -35.40880000     -70.65800000
H      -42.75380000     -36.22040000     -70.09740000
H      -44.43420000     -35.67140000     -70.53810000
C      -42.95380000     -34.05210000     -70.13740000
H      -43.22980000     -34.15120000     -69.12850000
H      -41.86380000     -34.05920000     -70.27210000
C      -46.10910000     -33.18100000     -68.55650000
H      -45.16510000     -33.37360000     -68.00820000
H      -46.64890000     -32.51800000     -67.86240000
C      -45.77610000     -32.17460000     -69.63320000
C      -46.64300000     -31.13720000     -69.81360000
C      -44.56260000     -32.03720000     -70.43720000
H      -47.70860000     -31.11240000     -69.56480000
C      -44.57370000     -30.87660000     -71.18860000
C      -43.39040000     -32.80740000     -70.75740000
C      -42.55620000     -32.17330000     -71.59900000
S      -46.02120000     -29.97390000     -71.00720000
S      -43.13970000     -30.61480000     -72.09140000
H      -41.58480000     -32.50450000     -71.96450000
