40
Properties=species:S:1:pos:R:3 #=T CELL(abcABC):=T 1.889726e+02=T 90.00000=T Traj:=T positionsangstrom=T Step:=T 0=T Bead:=T pbc="F F F"
C      -49.30550000     -32.98790000     -71.57760000
C      -48.13030000     -33.66330000     -71.88440000
C      -47.12080000     -33.69490000     -70.91650000
C      -47.15410000     -32.88040000     -69.71260000
C      -48.27230000     -32.09520000     -69.49810000
C      -49.36220000     -32.11620000     -70.41990000
H      -50.18510000     -33.11090000     -72.19720000
H      -46.32650000     -34.36760000     -71.03620000
H      -48.30930000     -31.48090000     -68.61410000
H      -50.18150000     -31.46350000     -70.25010000
C      -45.86310000     -32.95830000     -68.79780000
H      -45.08660000     -33.66200000     -69.20550000
H      -46.11000000     -33.21770000     -67.65760000
C      -48.03700000     -34.45010000     -73.14890000
H      -47.58460000     -35.46810000     -73.09400000
H      -49.10900000     -34.67050000     -73.41060000
S      -45.04580000     -31.31660000     -68.66050000
S      -47.20470000     -33.51080000     -74.58500000
C      -44.83920000     -30.84880000     -70.46830000
H      -45.56860000     -31.47540000     -70.95280000
H      -45.04690000     -29.86260000     -70.59230000
C      -45.99880000     -32.29260000     -73.80020000
H      -46.23300000     -31.99050000     -72.80130000
H      -46.04740000     -31.34650000     -74.49100000
C      -44.57380000     -32.77750000     -73.82160000
H      -44.18920000     -33.04500000     -74.83150000
H      -43.93490000     -31.89890000     -73.60210000
C      -43.34400000     -31.12470000     -70.84450000
H      -42.69380000     -30.53750000     -70.24880000
H      -43.20610000     -30.93890000     -71.95140000
C      -42.98540000     -32.64120000     -70.70990000
C      -42.28500000     -33.13990000     -69.68710000
C      -43.53040000     -33.67290000     -71.58550000
H      -41.79120000     -32.54710000     -68.97970000
C      -43.20140000     -34.98800000     -71.07490000
C      -44.26960000     -33.87170000     -72.80200000
C      -44.39710000     -35.27450000     -73.19960000
S      -42.23890000     -34.84620000     -69.56640000
S      -43.72610000     -36.31730000     -72.02290000
H      -44.69020000     -35.64330000     -74.18120000
