40
Properties=species:S:1:pos:R:3 #=T CELL(abcABC):=T 1.889726e+02=T 90.00000=T Traj:=T positionsangstrom=T Step:=T 0=T Bead:=T pbc="F F F"
C      -42.46410000     -31.10300000     -70.34390000
C      -42.93220000     -32.02570000     -71.23500000
C      -43.52960000     -33.22180000     -70.74070000
C      -43.61620000     -33.44460000     -69.40280000
C      -42.91970000     -32.55070000     -68.47940000
C      -42.28970000     -31.45100000     -68.96410000
H      -42.12970000     -30.11360000     -70.63390000
H      -43.98740000     -33.84800000     -71.49760000
H      -42.95240000     -32.79330000     -67.41580000
H      -41.85670000     -30.76140000     -68.21080000
C      -44.30380000     -34.60220000     -68.80730000
H      -43.62370000     -34.81340000     -67.92720000
H      -44.33720000     -35.42310000     -69.49840000
C      -43.16390000     -31.73000000     -72.75120000
H      -42.20740000     -31.55220000     -73.21730000
H      -43.53250000     -32.65100000     -73.15530000
S      -45.93870000     -34.27870000     -68.10160000
S      -44.30460000     -30.32830000     -73.07330000
C      -46.59810000     -32.81890000     -68.94270000
H      -46.97360000     -32.07890000     -68.15650000
H      -45.73630000     -32.25610000     -69.34010000
C      -45.82010000     -30.82500000     -72.15860000
H      -46.20310000     -29.88400000     -71.87730000
H      -45.58450000     -31.46170000     -71.33490000
C      -46.84560000     -31.60010000     -73.06220000
H      -47.76390000     -31.65150000     -72.56290000
H      -46.90260000     -31.13270000     -74.06090000
C      -47.66890000     -33.07860000     -70.01140000
H      -47.78250000     -32.10340000     -70.50230000
H      -48.73520000     -33.19500000     -69.62300000
C      -47.29370000     -34.20040000     -70.91040000
C      -47.42730000     -35.50050000     -70.52840000
C      -46.70830000     -34.10430000     -72.24460000
H      -47.71620000     -35.93910000     -69.58550000
C      -46.31470000     -35.35580000     -72.77310000
C      -46.34660000     -33.07460000     -73.19380000
C      -45.82660000     -33.53350000     -74.32490000
S      -46.67970000     -36.61320000     -71.63860000
S      -45.66540000     -35.30760000     -74.37360000
H      -45.46860000     -32.97150000     -75.14140000
