40
Properties=species:S:1:pos:R:3 #=T CELL(abcABC):=T 1.889726e+02=T 90.00000=T Traj:=T positionsangstrom=T Step:=T 0=T Bead:=T pbc="F F F"
C      -49.27100000     -33.16150000     -71.38450000
C      -48.04600000     -33.77720000     -71.64140000
C      -46.98440000     -33.66080000     -70.75010000
C      -47.13420000     -32.91720000     -69.53420000
C      -48.47090000     -32.47650000     -69.23570000
C      -49.51470000     -32.61920000     -70.14290000
H      -50.05260000     -33.37360000     -72.13880000
H      -45.98200000     -34.01600000     -71.00980000
H      -48.77330000     -32.10090000     -68.23610000
H      -50.44780000     -32.20390000     -69.96890000
C      -45.99290000     -32.61740000     -68.71120000
H      -45.24480000     -33.42100000     -68.77730000
H      -46.28620000     -32.57500000     -67.69860000
C      -47.84830000     -34.50920000     -72.99900000
H      -46.98360000     -35.28680000     -72.93100000
H      -48.69300000     -35.00620000     -73.41250000
S      -45.36180000     -30.93080000     -68.91480000
S      -47.40750000     -33.22710000     -74.31500000
C      -45.07920000     -30.80770000     -70.68630000
H      -45.71240000     -31.31440000     -71.33730000
H      -45.12490000     -29.70970000     -70.90600000
C      -45.80960000     -32.28700000     -73.85140000
H      -45.98620000     -31.92930000     -72.80060000
H      -45.74000000     -31.47420000     -74.59200000
C      -44.41740000     -33.05880000     -74.02640000
H      -44.52140000     -33.66660000     -74.94750000
H      -43.61420000     -32.37150000     -74.35430000
C      -43.65680000     -31.21270000     -71.11120000
H      -42.99010000     -30.62310000     -70.48490000
H      -43.55090000     -30.92140000     -72.19890000
C      -43.25600000     -32.63190000     -70.83180000
C      -42.60640000     -33.03570000     -69.66780000
C      -43.43100000     -33.80500000     -71.71730000
H      -42.33630000     -32.45290000     -68.76930000
C      -42.99240000     -34.96700000     -71.08020000
C      -44.00060000     -34.05270000     -73.00390000
C      -44.07040000     -35.40360000     -73.29960000
S      -42.19960000     -34.79040000     -69.59680000
S      -43.28110000     -36.42430000     -72.08740000
H      -44.19590000     -35.80630000     -74.28790000
