40
Properties=species:S:1:pos:R:3 #=T CELL(abcABC):=T 1.889726e+02=T 90.00000=T Traj:=T positionsangstrom=T Step:=T 0=T Bead:=T pbc="F F F"
C      -49.14620000     -33.89690000     -71.19060000
C      -47.82420000     -34.31160000     -71.24180000
C      -46.91760000     -33.75690000     -70.33340000
C      -47.33730000     -32.84650000     -69.37120000
C      -48.71330000     -32.38750000     -69.34170000
C      -49.63760000     -32.93410000     -70.26310000
H      -49.85560000     -34.41670000     -71.82230000
H      -45.87470000     -34.07100000     -70.31910000
H      -48.98600000     -31.68460000     -68.59050000
H      -50.65790000     -32.58710000     -70.07680000
C      -46.30470000     -32.30660000     -68.43290000
H      -45.42050000     -32.93250000     -68.49780000
H      -46.71110000     -32.28180000     -67.46190000
C      -47.32400000     -35.20970000     -72.33310000
H      -46.34190000     -35.62800000     -72.10060000
H      -48.02060000     -36.02980000     -72.40810000
S      -45.70630000     -30.57480000     -68.82430000
S      -47.21330000     -34.35890000     -73.96000000
C      -45.22740000     -30.64150000     -70.57110000
H      -45.94610000     -31.34170000     -71.05050000
H      -45.42490000     -29.69480000     -71.12390000
C      -46.61200000     -32.75110000     -73.38400000
H      -46.65260000     -32.55030000     -72.32650000
H      -47.15280000     -31.95490000     -73.85870000
C      -45.06630000     -32.58450000     -73.75840000
H      -44.85820000     -32.56700000     -74.83660000
H      -44.64750000     -31.62580000     -73.43660000
C      -43.75260000     -31.06910000     -70.83200000
H      -42.98870000     -30.56640000     -70.13280000
H      -43.47980000     -30.57060000     -71.78340000
C      -43.26370000     -32.49290000     -70.83290000
C      -42.43080000     -32.95130000     -69.83990000
C      -43.52850000     -33.54400000     -71.84910000
H      -42.19350000     -32.51290000     -68.88110000
C      -42.81920000     -34.74360000     -71.51280000
C      -44.18950000     -33.63860000     -73.15510000
C      -43.85010000     -34.83080000     -73.82310000
S      -41.88930000     -34.60230000     -70.07910000
S      -42.82820000     -35.87670000     -72.82260000
H      -44.28330000     -35.19050000     -74.74900000
