40
Properties=species:S:1:pos:R:3 #=T CELL(abcABC):=T 1.889726e+02=T 90.00000=T Traj:=T positionsangstrom=T Step:=T 0=T Bead:=T pbc="F F F"
C      -42.77750000     -33.16580000     -74.13000000
C      -43.23810000     -34.38330000     -73.53640000
C      -44.39860000     -34.95130000     -74.08200000
C      -45.22630000     -34.15020000     -74.88580000
C      -44.76520000     -32.88560000     -75.33590000
C      -43.51180000     -32.38940000     -75.01710000
H      -41.77890000     -32.88300000     -73.87980000
H      -44.81550000     -35.91100000     -74.00000000
H      -45.35170000     -32.44990000     -76.07220000
H      -43.01600000     -31.58280000     -75.52120000
C      -46.57370000     -34.64250000     -75.29480000
H      -46.61980000     -35.56060000     -75.84770000
H      -47.04970000     -33.86970000     -75.98580000
C      -42.38790000     -35.23690000     -72.67650000
H      -42.10610000     -36.07750000     -73.38580000
H      -41.45640000     -34.78190000     -72.18840000
S      -47.68960000     -34.80540000     -73.80180000
S      -43.39010000     -36.10140000     -71.23040000
C      -47.27240000     -33.37910000     -72.60140000
H      -46.56190000     -32.65700000     -73.07940000
H      -48.24530000     -32.90880000     -72.44750000
C      -43.53550000     -34.51340000     -70.22610000
H      -43.87090000     -33.63520000     -70.84760000
H      -42.59240000     -34.19890000     -69.93620000
C      -44.47380000     -34.74190000     -68.99010000
H      -45.30610000     -35.35450000     -69.41490000
H      -43.81990000     -35.25520000     -68.25170000
C      -46.67700000     -33.81040000     -71.27420000
H      -45.69740000     -34.35190000     -71.44480000
H      -47.16030000     -34.46320000     -70.56340000
C      -46.46270000     -32.56980000     -70.46000000
C      -46.98600000     -31.38580000     -70.79420000
C      -45.86410000     -32.59480000     -69.07830000
H      -47.33150000     -31.06370000     -71.79710000
C      -46.11810000     -31.38570000     -68.44410000
C      -45.04580000     -33.48860000     -68.39120000
C      -44.71880000     -32.95700000     -67.11460000
S      -47.05260000     -30.26960000     -69.41170000
S      -45.42720000     -31.38870000     -66.84340000
H      -44.08170000     -33.46380000     -66.40370000
