40
Properties=species:S:1:pos:R:3 #=T CELL(abcABC):=T 1.889726e+02=T 90.00000=T Traj:=T positionsangstrom=T Step:=T 0=T Bead:=T pbc="F F F"
C      -48.91720000     -34.51260000     -71.30200000
C      -47.50090000     -34.59590000     -71.53440000
C      -46.59710000     -34.17660000     -70.54470000
C      -47.07380000     -33.65180000     -69.33660000
C      -48.44000000     -33.49700000     -69.17320000
C      -49.36210000     -33.92560000     -70.16440000
H      -49.57200000     -34.71640000     -72.11760000
H      -45.53290000     -34.22740000     -70.72740000
H      -48.75230000     -33.19140000     -68.14000000
H      -50.38970000     -33.73830000     -70.12020000
C      -46.21930000     -32.96370000     -68.31790000
H      -45.24930000     -33.39760000     -68.20570000
H      -46.65450000     -32.97910000     -67.33410000
C      -46.97990000     -35.12770000     -72.84020000
H      -45.95480000     -35.54230000     -72.80440000
H      -47.54160000     -36.00610000     -73.26630000
S      -45.92750000     -31.13430000     -68.62430000
S      -47.17980000     -33.97050000     -74.30390000
C      -45.77180000     -30.79170000     -70.48800000
H      -46.48950000     -31.30930000     -71.01400000
H      -46.05370000     -29.78970000     -70.56410000
C      -46.35610000     -32.38780000     -73.94100000
H      -46.57960000     -32.02850000     -72.95850000
H      -46.68930000     -31.62380000     -74.65100000
C      -44.84270000     -32.38140000     -74.08270000
H      -44.53890000     -32.51090000     -75.12750000
H      -44.51850000     -31.36850000     -73.76970000
C      -44.28550000     -30.78850000     -70.86050000
H      -43.82930000     -30.13190000     -70.14060000
H      -44.19250000     -30.22990000     -71.81120000
C      -43.48630000     -32.07640000     -70.84990000
C      -42.77850000     -32.36060000     -69.74060000
C      -43.54950000     -33.13980000     -71.83610000
H      -42.55370000     -31.83240000     -68.81960000
C      -42.83280000     -34.23230000     -71.37950000
C      -44.13310000     -33.43120000     -73.12430000
C      -43.78040000     -34.64890000     -73.58300000
S      -42.10950000     -34.04980000     -69.86010000
S      -42.82270000     -35.54270000     -72.42640000
H      -43.97530000     -34.99040000     -74.57830000
