40
Properties=species:S:1:pos:R:3 #=T CELL(abcABC):=T 1.889726e+02=T 90.00000=T Traj:=T positionsangstrom=T Step:=T 0=T Bead:=T pbc="F F F"
C      -46.12130000     -33.91690000     -66.96610000
C      -46.74890000     -34.27440000     -68.16320000
C      -47.24850000     -33.25540000     -69.02620000
C      -47.14210000     -31.88830000     -68.70340000
C      -46.50930000     -31.56170000     -67.54960000
C      -46.01010000     -32.60140000     -66.70060000
H      -45.78530000     -34.52520000     -66.19650000
H      -47.74760000     -33.54050000     -69.96530000
H      -46.32230000     -30.48180000     -67.37850000
H      -45.58900000     -32.25650000     -65.67550000
C      -47.71770000     -30.75650000     -69.55400000
H      -48.02590000     -30.01010000     -68.85620000
H      -48.70180000     -30.98560000     -69.99850000
C      -47.10540000     -35.70280000     -68.49780000
H      -47.36160000     -36.19520000     -67.58820000
H      -48.05990000     -35.82030000     -69.03100000
S      -46.52460000     -29.86340000     -70.61020000
S      -45.76120000     -36.68960000     -69.28260000
C      -45.48070000     -31.20140000     -71.43990000
H      -44.71900000     -30.64400000     -71.84160000
H      -44.93500000     -31.94290000     -70.73130000
C      -45.50670000     -35.89200000     -70.93100000
H      -46.47550000     -35.59820000     -71.36780000
H      -45.06390000     -36.70820000     -71.44170000
C      -44.50010000     -34.78720000     -70.92060000
H      -44.93910000     -33.88540000     -70.42550000
H      -43.77920000     -35.24260000     -70.26120000
C      -46.31410000     -32.04280000     -72.43300000
H      -47.08270000     -31.48810000     -72.91510000
H      -46.80470000     -32.98050000     -71.98220000
C      -45.39700000     -32.60840000     -73.59110000
C      -45.20630000     -31.90520000     -74.78850000
C      -44.40390000     -33.71020000     -73.40410000
H      -45.72690000     -30.99940000     -75.21300000
C      -43.60060000     -33.77950000     -74.56330000
C      -43.92350000     -34.55130000     -72.32530000
C      -42.84270000     -35.33150000     -72.73140000
S      -43.93440000     -32.60310000     -75.78290000
S      -42.22880000     -34.83210000     -74.31920000
H      -42.35930000     -36.02640000     -72.01390000
