40
Properties=species:S:1:pos:R:3 #=T CELL(abcABC):=T 1.889726e+02=T 90.00000=T Traj:=T positionsangstrom=T Step:=T 0=T Bead:=T pbc="F F F"
C      -49.08530000     -33.91120000     -71.38470000
C      -47.75220000     -34.35220000     -71.41730000
C      -46.83840000     -34.03930000     -70.38070000
C      -47.22100000     -33.19400000     -69.30540000
C      -48.51730000     -32.74860000     -69.32420000
C      -49.46150000     -33.04640000     -70.31340000
H      -49.79600000     -34.14160000     -72.14300000
H      -45.78700000     -34.31750000     -70.43540000
H      -48.81540000     -31.99160000     -68.60240000
H      -50.36360000     -32.52460000     -70.26680000
C      -46.23170000     -32.87520000     -68.24570000
H      -45.35780000     -33.52620000     -68.12760000
H      -46.74850000     -32.80490000     -67.20210000
C      -47.21950000     -35.18560000     -72.55930000
H      -46.20660000     -35.59070000     -72.38740000
H      -47.84010000     -36.08380000     -72.65090000
S      -45.63300000     -31.19660000     -68.53110000
S      -47.28680000     -34.24050000     -74.14610000
C      -45.72470000     -30.74100000     -70.33840000
H      -46.58620000     -31.27080000     -70.88810000
H      -45.87390000     -29.60000000     -70.29190000
C      -46.32920000     -32.68160000     -73.64890000
H      -46.32070000     -32.67110000     -72.57030000
H      -46.88680000     -31.85660000     -74.14660000
C      -44.84010000     -32.71220000     -74.10590000
H      -44.98710000     -33.06640000     -75.09080000
H      -44.48500000     -31.69460000     -74.14340000
C      -44.46040000     -30.99360000     -71.13120000
H      -43.80780000     -30.11690000     -71.02980000
H      -44.72840000     -30.98860000     -72.21760000
C      -43.72030000     -32.29610000     -70.86790000
C      -42.93590000     -32.67480000     -69.78690000
C      -43.57080000     -33.25980000     -71.91940000
H      -42.89820000     -32.13060000     -68.89840000
C      -42.76650000     -34.36670000     -71.47720000
C      -43.91730000     -33.53120000     -73.27440000
C      -43.40130000     -34.63920000     -73.80510000
S      -42.18660000     -34.20700000     -69.85590000
S      -42.46580000     -35.60400000     -72.61770000
H      -43.49770000     -34.87780000     -74.86180000
