40
Properties=species:S:1:pos:R:3 #=T CELL(abcABC):=T 1.889726e+02=T 90.00000=T Traj:=T positionsangstrom=T Step:=T 0=T Bead:=T pbc="F F F"
C      -49.14100000     -33.82730000     -71.42060000
C      -47.86330000     -34.40760000     -71.34200000
C      -46.98280000     -33.99030000     -70.29970000
C      -47.34030000     -33.14050000     -69.27810000
C      -48.64910000     -32.64120000     -69.34600000
C      -49.49690000     -32.96070000     -70.41580000
H      -49.83530000     -34.19520000     -72.15550000
H      -46.04360000     -34.44950000     -70.28010000
H      -49.02910000     -32.09610000     -68.52250000
H      -50.43220000     -32.59760000     -70.30440000
C      -46.34910000     -32.73420000     -68.15290000
H      -45.67100000     -33.53650000     -67.96310000
H      -46.98570000     -32.57810000     -67.26770000
C      -47.34960000     -35.29280000     -72.48130000
H      -46.31740000     -35.66190000     -72.39000000
H      -48.06020000     -36.08110000     -72.69000000
S      -45.37650000     -31.10810000     -68.41880000
S      -47.17760000     -34.39090000     -74.13500000
C      -45.57540000     -30.86340000     -70.26210000
H      -46.20460000     -31.65970000     -70.60620000
H      -46.02600000     -29.96620000     -70.54980000
C      -46.35460000     -32.76730000     -73.73270000
H      -46.57360000     -32.55560000     -72.68770000
H      -46.91160000     -31.96110000     -74.18720000
C      -44.93200000     -32.68920000     -74.14620000
H      -44.71940000     -33.02540000     -75.20690000
H      -44.50600000     -31.69370000     -73.98540000
C      -44.21800000     -30.88450000     -71.05840000
H      -43.51470000     -30.19980000     -70.57310000
H      -44.42910000     -30.46270000     -72.01190000
C      -43.66560000     -32.30570000     -71.01780000
C      -43.04070000     -32.54230000     -69.80210000
C      -43.54440000     -33.42840000     -71.96800000
H      -42.98450000     -31.71380000     -69.12610000
C      -42.67460000     -34.40640000     -71.49480000
C      -43.98980000     -33.61590000     -73.30500000
C      -43.55090000     -34.79610000     -73.82400000
S      -42.18070000     -34.06790000     -69.88730000
S      -42.53740000     -35.65260000     -72.70640000
H      -43.64890000     -35.19270000     -74.82070000
