40
Properties=species:S:1:pos:R:3 #=T CELL(abcABC):=T 1.889726e+02=T 90.00000=T Traj:=T positionsangstrom=T Step:=T 0=T Bead:=T pbc="F F F"
C      -46.57790000     -33.98140000     -67.36470000
C      -47.38510000     -34.06880000     -68.58430000
C      -47.64130000     -32.91680000     -69.31790000
C      -47.23250000     -31.67530000     -68.85870000
C      -46.33700000     -31.58650000     -67.75660000
C      -46.03610000     -32.73700000     -67.02140000
H      -46.55440000     -34.79970000     -66.64180000
H      -48.27100000     -33.01850000     -70.24100000
H      -45.82380000     -30.66020000     -67.56750000
H      -45.52090000     -32.75460000     -66.07350000
C      -47.55380000     -30.34730000     -69.55070000
H      -47.95030000     -29.54910000     -69.04670000
H      -48.35770000     -30.55940000     -70.31840000
C      -47.86600000     -35.40680000     -68.96370000
H      -48.38220000     -35.97200000     -68.14170000
H      -48.43310000     -35.44100000     -69.84340000
S      -46.04930000     -29.75290000     -70.57150000
S      -46.37280000     -36.60480000     -69.35620000
C      -45.17540000     -31.25340000     -71.11580000
H      -44.21110000     -30.89180000     -71.50670000
H      -45.09870000     -31.90350000     -70.24100000
C      -45.74610000     -35.93120000     -71.00780000
H      -46.61030000     -35.71850000     -71.69050000
H      -45.22610000     -36.78230000     -71.47190000
C      -44.84290000     -34.72840000     -70.91580000
H      -45.46710000     -33.87920000     -70.77520000
H      -44.11680000     -34.94250000     -70.04010000
C      -45.83630000     -31.92060000     -72.45660000
H      -46.35930000     -31.09080000     -72.93690000
H      -46.57360000     -32.62140000     -72.16870000
C      -44.90690000     -32.41450000     -73.48930000
C      -44.69490000     -31.84260000     -74.72810000
C      -44.12310000     -33.58750000     -73.24970000
H      -45.19640000     -31.08580000     -75.29170000
C      -43.31700000     -33.94660000     -74.29630000
C      -43.96530000     -34.58730000     -72.13160000
C      -42.94790000     -35.46520000     -72.42000000
S      -43.54440000     -32.84160000     -75.61320000
S      -42.28640000     -35.34470000     -74.00780000
H      -42.72490000     -36.30000000     -71.88540000
