40
Properties=species:S:1:pos:R:3 #=T CELL(abcABC):=T 1.889726e+02=T 90.00000=T Traj:=T positionsangstrom=T Step:=T 0=T Bead:=T pbc="F F F"
C      -46.28220000     -33.61630000     -67.60340000
C      -47.33790000     -33.87000000     -68.52110000
C      -47.74390000     -32.73990000     -69.34400000
C      -47.14020000     -31.47660000     -69.21050000
C      -46.04920000     -31.35730000     -68.32460000
C      -45.71350000     -32.39270000     -67.46480000
H      -46.04790000     -34.45560000     -66.95040000
H      -48.60200000     -32.92300000     -69.96110000
H      -45.57740000     -30.34660000     -68.18440000
H      -45.00710000     -32.19460000     -66.61690000
C      -47.51700000     -30.25180000     -70.06140000
H      -47.89940000     -29.43010000     -69.37100000
H      -48.27720000     -30.38360000     -70.75320000
C      -47.95760000     -35.27260000     -68.59360000
H      -48.20750000     -35.75610000     -67.67870000
H      -48.89120000     -35.30660000     -69.23840000
S      -46.09870000     -29.39220000     -70.91300000
S      -46.83090000     -36.57100000     -69.37800000
C      -45.00130000     -30.69580000     -71.50400000
H      -44.35340000     -30.15770000     -72.19820000
H      -44.59880000     -31.12250000     -70.49640000
C      -46.32260000     -35.97340000     -71.02110000
H      -47.13450000     -35.45930000     -71.52430000
H      -45.89920000     -36.89620000     -71.50600000
C      -45.12040000     -35.04510000     -70.88180000
H      -45.34460000     -34.05190000     -70.67630000
H      -44.64050000     -35.48570000     -69.95720000
C      -45.71520000     -31.80590000     -72.35910000
H      -46.47840000     -31.36880000     -72.94670000
H      -46.22730000     -32.56600000     -71.73840000
C      -44.74770000     -32.57340000     -73.22170000
C      -44.11290000     -31.92990000     -74.24580000
C      -44.14210000     -33.89270000     -73.01200000
H      -44.28270000     -30.91910000     -74.61190000
C      -43.28120000     -34.25270000     -74.05360000
C      -44.28610000     -35.00910000     -72.08170000
C      -43.40400000     -36.03640000     -72.38770000
S      -42.91030000     -32.91870000     -75.14220000
S      -42.53210000     -35.80750000     -73.85420000
H      -43.31840000     -36.97110000     -71.88660000
