40
Properties=species:S:1:pos:R:3 #=T CELL(abcABC):=T 1.889726e+02=T 90.00000=T Traj:=T positionsangstrom=T Step:=T 0=T Bead:=T pbc="F F F"
C      -46.31740000     -33.90420000     -67.40030000
C      -47.18500000     -34.04180000     -68.47240000
C      -47.55870000     -32.88320000     -69.21990000
C      -47.08870000     -31.60820000     -68.93170000
C      -46.30800000     -31.44530000     -67.78090000
C      -45.91550000     -32.59790000     -67.06740000
H      -45.98940000     -34.81880000     -66.87930000
H      -48.17610000     -33.01440000     -70.11480000
H      -46.00010000     -30.51060000     -67.45440000
H      -45.33560000     -32.55600000     -66.17570000
C      -47.56550000     -30.53920000     -69.81770000
H      -47.86060000     -29.59130000     -69.24370000
H      -48.33940000     -30.87960000     -70.44160000
C      -47.80380000     -35.33930000     -68.88050000
H      -48.40070000     -35.69410000     -68.08030000
H      -48.40590000     -35.29800000     -69.79300000
S      -46.14530000     -29.66050000     -70.67520000
S      -46.60690000     -36.64890000     -69.36500000
C      -45.08640000     -30.87810000     -71.45420000
H      -44.40690000     -30.25640000     -72.07010000
H      -44.45790000     -31.46170000     -70.75670000
C      -46.02140000     -36.00640000     -70.99970000
H      -46.88100000     -35.71190000     -71.62110000
H      -45.41200000     -36.78950000     -71.41420000
C      -45.02930000     -34.73980000     -70.95300000
H      -45.56530000     -33.79840000     -70.71520000
H      -44.39540000     -34.89360000     -70.13890000
C      -45.78020000     -31.83020000     -72.41500000
H      -46.50160000     -31.34290000     -73.01970000
H      -46.33260000     -32.44840000     -71.70470000
C      -44.86200000     -32.48420000     -73.43570000
C      -44.50160000     -31.90910000     -74.63370000
C      -44.13860000     -33.67320000     -73.14420000
H      -44.70140000     -30.86560000     -74.81010000
C      -43.24000000     -34.00120000     -74.18540000
C      -44.15170000     -34.69760000     -72.20860000
C      -43.24350000     -35.69820000     -72.45420000
S      -43.25130000     -32.81250000     -75.43270000
S      -42.41690000     -35.51520000     -73.98210000
H      -43.00750000     -36.51380000     -71.74030000
