40
Properties=species:S:1:pos:R:3 #=T CELL(abcABC):=T 1.889726e+02=T 90.00000=T Traj:=T positionsangstrom=T Step:=T 0=T Bead:=T pbc="F F F"
C      -48.11800000     -35.57620000     -72.86350000
C      -46.83210000     -35.02030000     -72.56910000
C      -46.71080000     -34.27730000     -71.40560000
C      -47.82780000     -34.09790000     -70.53810000
C      -49.07940000     -34.67450000     -70.83260000
C      -49.24470000     -35.46380000     -71.98550000
H      -48.20000000     -36.17200000     -73.77580000
H      -45.86690000     -33.73410000     -71.06940000
H      -49.92470000     -34.46090000     -70.15420000
H      -50.23170000     -35.68860000     -72.37030000
C      -47.46050000     -33.24810000     -69.27550000
H      -46.46660000     -33.41320000     -69.05490000
H      -47.98280000     -33.39950000     -68.28550000
C      -45.69610000     -35.26860000     -73.54220000
H      -44.79350000     -35.65730000     -73.07390000
H      -45.97450000     -35.96970000     -74.26680000
S      -47.80030000     -31.39030000     -69.50440000
S      -45.25090000     -33.82070000     -74.59260000
C      -46.65390000     -30.90720000     -70.95160000
H      -46.55120000     -31.72010000     -71.62250000
H      -47.08900000     -30.07210000     -71.46440000
C      -44.95960000     -32.15490000     -73.83690000
H      -45.51840000     -31.93540000     -72.91180000
H      -45.39320000     -31.44980000     -74.50460000
C      -43.55150000     -31.94780000     -73.40850000
H      -42.83800000     -32.11640000     -74.23110000
H      -43.39250000     -30.83750000     -73.04170000
C      -45.16170000     -30.58260000     -70.62440000
H      -45.23300000     -29.83130000     -69.86690000
H      -44.70210000     -30.18990000     -71.58670000
C      -44.27080000     -31.78740000     -70.16540000
C      -44.28230000     -32.19980000     -68.84580000
C      -43.42730000     -32.73900000     -70.86750000
H      -44.84290000     -31.59080000     -68.11890000
C      -42.91530000     -33.76630000     -70.13160000
C      -43.11550000     -32.93610000     -72.30820000
C      -42.53610000     -34.13950000     -72.59770000
S      -43.27740000     -33.59100000     -68.45010000
S      -42.16710000     -35.01050000     -71.08720000
H      -42.22710000     -34.52260000     -73.52960000
