40
Properties=species:S:1:pos:R:3 #=T CELL(abcABC):=T 1.889726e+02=T 90.00000=T Traj:=T positionsangstrom=T Step:=T 0=T Bead:=T pbc="F F F"
C      -48.62290000     -34.69290000     -72.86760000
C      -47.34150000     -34.79810000     -72.37580000
C      -47.00340000     -34.41450000     -71.01110000
C      -47.95910000     -33.77900000     -70.20280000
C      -49.25510000     -33.63530000     -70.78390000
C      -49.55430000     -34.07420000     -72.05270000
H      -48.86280000     -35.06360000     -73.94540000
H      -46.02290000     -34.59630000     -70.63090000
H      -50.02690000     -33.16660000     -70.28320000
H      -50.58600000     -34.05220000     -72.32250000
C      -47.61890000     -33.10010000     -68.88670000
H      -46.80560000     -33.62000000     -68.38870000
H      -48.49440000     -33.11640000     -68.26700000
C      -46.20510000     -35.46890000     -73.18470000
H      -45.48970000     -35.93510000     -72.48400000
H      -46.68410000     -36.28600000     -73.76850000
S      -47.23570000     -31.28850000     -69.00790000
S      -45.37410000     -34.50030000     -74.54520000
C      -46.27430000     -31.00430000     -70.61160000
H      -46.36990000     -31.78870000     -71.36960000
H      -46.68860000     -30.12050000     -71.12170000
C      -45.46550000     -32.81760000     -74.04490000
H      -46.33580000     -32.62570000     -73.38430000
H      -45.83210000     -32.36000000     -74.86840000
C      -44.17080000     -32.13260000     -73.49270000
H      -43.53700000     -31.79160000     -74.41620000
H      -44.35250000     -31.09020000     -72.98570000
C      -44.78260000     -30.69410000     -70.50280000
H      -44.59170000     -29.95250000     -69.66480000
H      -44.55490000     -30.11630000     -71.37120000
C      -44.03470000     -31.93950000     -70.22640000
C      -43.89860000     -32.45620000     -68.92210000
C      -43.38910000     -32.76170000     -71.15290000
H      -44.31310000     -32.04340000     -68.00690000
C      -42.61790000     -33.79150000     -70.43930000
C      -43.46430000     -33.04260000     -72.57330000
C      -42.71240000     -34.12140000     -72.93000000
S      -42.77380000     -33.77420000     -68.72030000
S      -42.01950000     -35.04200000     -71.59920000
H      -42.32410000     -34.40830000     -73.88700000
