40
Properties=species:S:1:pos:R:3 #=T CELL(abcABC):=T 1.889726e+02=T 90.00000=T Traj:=T positionsangstrom=T Step:=T 0=T Bead:=T pbc="F F F"
C      -42.69750000     -33.71420000     -69.07320000
C      -43.88780000     -34.37460000     -68.63090000
C      -45.07170000     -33.67530000     -68.39230000
C      -45.06640000     -32.23420000     -68.32020000
C      -43.93290000     -31.59520000     -68.82540000
C      -42.75610000     -32.31160000     -69.07220000
H      -41.78650000     -34.23870000     -69.23770000
H      -45.96250000     -34.17910000     -67.96500000
H      -43.85920000     -30.56020000     -68.83260000
H      -41.85330000     -31.77850000     -69.53950000
C      -46.28500000     -31.46120000     -67.88960000
H      -46.24580000     -30.38380000     -67.89690000
H      -46.60490000     -31.87020000     -66.94760000
C      -43.77830000     -35.93160000     -68.52850000
H      -42.89070000     -36.24530000     -67.91900000
H      -44.60930000     -36.26880000     -67.85810000
S      -47.74660000     -32.01680000     -69.01190000
S      -43.75390000     -36.81570000     -70.14220000
C      -47.21170000     -31.51650000     -70.71280000
H      -47.53680000     -30.45260000     -70.91880000
H      -46.08900000     -31.58090000     -70.75480000
C      -45.35050000     -36.39860000     -71.06230000
H      -46.16600000     -36.78290000     -70.52790000
H      -45.22660000     -37.06910000     -71.85900000
C      -45.65340000     -34.92620000     -71.35130000
H      -46.76020000     -34.92280000     -71.58660000
H      -45.57600000     -34.28380000     -70.41160000
C      -47.91590000     -32.48560000     -71.72470000
H      -48.91460000     -32.19200000     -71.79380000
H      -47.89570000     -33.49640000     -71.29150000
C      -47.16930000     -32.45510000     -73.03700000
C      -47.46240000     -31.52320000     -73.99000000
C      -45.92320000     -33.25680000     -73.30730000
H      -48.37470000     -30.96710000     -74.11690000
C      -45.32960000     -32.85720000     -74.51500000
C      -45.04990000     -34.21420000     -72.52820000
C      -43.86150000     -34.39640000     -73.14360000
S      -46.27790000     -31.59580000     -75.35280000
S      -43.74960000     -33.62690000     -74.82500000
H      -43.07070000     -35.16360000     -72.89120000
