40
Properties=species:S:1:pos:R:3 #=T CELL(abcABC):=T 1.889726e+02=T 90.00000=T Traj:=T positionsangstrom=T Step:=T 0=T Bead:=T pbc="F F F"
C      -42.87160000     -33.86170000     -69.47360000
C      -43.91640000     -34.47360000     -68.77960000
C      -44.94170000     -33.73340000     -68.21190000
C      -44.96220000     -32.29380000     -68.41120000
C      -43.91470000     -31.67730000     -69.05700000
C      -42.85120000     -32.47090000     -69.57610000
H      -42.03450000     -34.45920000     -69.82450000
H      -45.73040000     -34.18240000     -67.66330000
H      -43.86270000     -30.56330000     -69.01810000
H      -42.13850000     -31.94340000     -70.14990000
C      -46.13810000     -31.58030000     -67.82430000
H      -46.00130000     -30.49520000     -67.66200000
H      -46.52000000     -32.05840000     -66.90520000
C      -43.90420000     -35.97020000     -68.55800000
H      -43.03950000     -36.27720000     -67.91770000
H      -44.71870000     -36.25940000     -67.89140000
S      -47.69750000     -31.92030000     -68.89410000
S      -43.72710000     -36.84630000     -70.18900000
C      -47.03850000     -31.59930000     -70.63180000
H      -46.97110000     -30.51630000     -70.66670000
H      -45.97820000     -31.94640000     -70.64130000
C      -45.31680000     -36.54430000     -71.12790000
H      -46.13610000     -37.10370000     -70.55270000
H      -45.29680000     -37.06180000     -72.11000000
C      -45.78980000     -35.00660000     -71.27240000
H      -46.85450000     -34.88790000     -71.27190000
H      -45.47280000     -34.36590000     -70.32440000
C      -47.89410000     -32.23660000     -71.70390000
H      -48.76880000     -31.63580000     -71.82730000
H      -48.19600000     -33.25800000     -71.41080000
C      -47.16310000     -32.27500000     -73.02080000
C      -47.32490000     -31.34620000     -74.02430000
C      -46.09120000     -33.17260000     -73.28670000
H      -48.03270000     -30.54160000     -74.03660000
C      -45.38900000     -32.80060000     -74.44640000
C      -45.29970000     -34.18770000     -72.50790000
C      -44.16050000     -34.58920000     -73.15830000
S      -46.11770000     -31.50760000     -75.31100000
S      -43.77890000     -33.58320000     -74.56460000
H      -43.51770000     -35.31430000     -72.81470000
