40
Properties=species:S:1:pos:R:3 #=T CELL(abcABC):=T 1.889726e+02=T 90.00000=T Traj:=T positionsangstrom=T Step:=T 0=T Bead:=T pbc="F F F"
C      -42.79680000     -33.55230000     -69.09380000
C      -43.98820000     -34.27380000     -68.84990000
C      -45.14940000     -33.64770000     -68.41320000
C      -45.23050000     -32.24840000     -68.29960000
C      -44.05360000     -31.52650000     -68.47780000
C      -42.82010000     -32.15440000     -68.94290000
H      -41.89230000     -34.07010000     -69.40570000
H      -46.09530000     -34.22750000     -68.36960000
H      -44.06230000     -30.50780000     -68.14320000
H      -41.97610000     -31.45190000     -69.10460000
C      -46.41080000     -31.58840000     -67.72360000
H      -46.24740000     -30.45840000     -67.66960000
H      -46.62130000     -32.02770000     -66.74330000
C      -43.79670000     -35.81950000     -68.99280000
H      -42.92480000     -36.07630000     -68.40640000
H      -44.64990000     -36.32510000     -68.60050000
S      -47.90810000     -31.88360000     -68.76990000
S      -43.64960000     -36.48810000     -70.68870000
C      -47.18040000     -31.48840000     -70.46100000
H      -47.27780000     -30.42670000     -70.60150000
H      -46.11660000     -31.72640000     -70.30170000
C      -45.47900000     -36.58300000     -71.10540000
H      -45.97340000     -37.02910000     -70.19910000
H      -45.55560000     -37.38070000     -71.90910000
C      -46.19310000     -35.35490000     -71.66320000
H      -47.24260000     -35.79800000     -71.92190000
H      -46.34060000     -34.67400000     -70.78350000
C      -47.76840000     -32.24710000     -71.63640000
H      -48.78830000     -31.83210000     -71.85780000
H      -47.91070000     -33.29170000     -71.25430000
C      -46.84880000     -32.27830000     -72.87000000
C      -46.69530000     -31.15710000     -73.66410000
C      -45.95090000     -33.32080000     -73.30690000
H      -47.23440000     -30.19280000     -73.69190000
C      -45.13930000     -32.93490000     -74.37890000
C      -45.57800000     -34.62860000     -72.82340000
C      -44.51230000     -35.17970000     -73.55460000
S      -45.58950000     -31.32490000     -75.02040000
S      -43.88770000     -34.07340000     -74.78760000
H      -44.03710000     -36.19340000     -73.63630000
