40
Properties=species:S:1:pos:R:3 #=T CELL(abcABC):=T 1.889726e+02=T 90.00000=T Traj:=T positionsangstrom=T Step:=T 0=T Bead:=T pbc="F F F"
C      -42.75080000     -33.63780000     -69.34120000
C      -43.77580000     -34.41910000     -68.74900000
C      -44.93840000     -33.74460000     -68.28230000
C      -45.02920000     -32.35220000     -68.31160000
C      -43.97680000     -31.57980000     -68.94420000
C      -42.81050000     -32.21230000     -69.38960000
H      -41.89740000     -34.16690000     -69.74070000
H      -45.85160000     -34.19900000     -67.85650000
H      -44.12370000     -30.46000000     -68.99570000
H      -42.02220000     -31.61670000     -69.93600000
C      -46.27360000     -31.53570000     -67.89350000
H      -46.01670000     -30.48080000     -67.83390000
H      -46.59460000     -31.75850000     -66.86960000
C      -43.83870000     -35.90790000     -68.75970000
H      -42.91650000     -36.31960000     -68.37280000
H      -44.73000000     -36.24440000     -68.21900000
S      -47.73720000     -31.93670000     -68.88880000
S      -43.83840000     -36.78550000     -70.44600000
C      -47.04520000     -31.55380000     -70.56780000
H      -46.86630000     -30.47920000     -70.77400000
H      -46.04000000     -31.96930000     -70.63650000
C      -45.58280000     -36.50140000     -71.17510000
H      -46.19060000     -37.00580000     -70.42780000
H      -45.67580000     -37.08980000     -72.11090000
C      -46.02010000     -35.03350000     -71.36010000
H      -47.06520000     -35.16820000     -71.65770000
H      -46.12920000     -34.54130000     -70.33240000
C      -47.87860000     -32.23090000     -71.66810000
H      -48.80710000     -31.64980000     -71.86070000
H      -48.18510000     -33.28680000     -71.35950000
C      -47.08270000     -32.32570000     -72.96630000
C      -47.18410000     -31.34810000     -73.89790000
C      -45.88240000     -33.13850000     -73.19460000
H      -48.02850000     -30.62160000     -73.98510000
C      -45.20390000     -32.78490000     -74.32810000
C      -45.28930000     -34.30740000     -72.49890000
C      -44.18940000     -34.74440000     -73.21840000
S      -46.03410000     -31.50420000     -75.18040000
S      -43.74730000     -33.81280000     -74.60500000
H      -43.55950000     -35.52450000     -72.84010000
