40
Properties=species:S:1:pos:R:3 #=T CELL(abcABC):=T 1.889726e+02=T 90.00000=T Traj:=T positionsangstrom=T Step:=T 0=T Bead:=T pbc="F F F"
C      -46.65180000     -30.68620000     -73.74230000
C      -46.21620000     -31.97970000     -73.93000000
C      -44.84790000     -32.37960000     -73.80630000
C      -43.87280000     -31.41190000     -73.45330000
C      -44.31060000     -30.04380000     -73.30580000
C      -45.68310000     -29.72780000     -73.34350000
H      -47.69420000     -30.54760000     -73.89000000
H      -44.68110000     -33.44560000     -73.98720000
H      -43.54860000     -29.28660000     -72.97280000
H      -45.92550000     -28.68610000     -73.28810000
C      -42.38100000     -31.65870000     -73.34520000
H      -41.90710000     -30.68140000     -73.17930000
H      -41.96760000     -32.09660000     -74.23070000
C      -47.21150000     -32.88440000     -74.60250000
H      -47.48570000     -32.45360000     -75.55810000
H      -46.78950000     -33.81500000     -74.84540000
S      -41.92510000     -32.87720000     -71.94760000
S      -48.72680000     -32.94290000     -73.60420000
C      -42.64520000     -31.91970000     -70.59350000
H      -41.96990000     -31.95720000     -69.70660000
H      -42.62810000     -30.80500000     -70.73500000
C      -48.34460000     -34.06930000     -72.20480000
H      -48.34020000     -35.12010000     -72.51520000
H      -49.27220000     -34.01070000     -71.52790000
C      -46.98210000     -33.72240000     -71.46900000
H      -46.20980000     -33.84040000     -72.22690000
H      -46.93010000     -32.70020000     -71.25450000
C      -44.13470000     -32.18740000     -70.13380000
H      -44.78530000     -32.04630000     -71.03320000
H      -44.40150000     -31.35670000     -69.42490000
C      -44.33220000     -33.49070000     -69.39870000
C      -43.53030000     -33.92690000     -68.36840000
C      -45.38280000     -34.47560000     -69.62020000
H      -42.67180000     -33.36020000     -67.98830000
C      -45.23830000     -35.58290000     -68.72890000
C      -46.63370000     -34.59020000     -70.37370000
C      -47.26410000     -35.77750000     -70.10280000
S      -43.93690000     -35.43980000     -67.63960000
S      -46.59570000     -36.72820000     -68.83810000
H      -48.12780000     -36.12130000     -70.65410000
