40
Properties=species:S:1:pos:R:3 #=T CELL(abcABC):=T 1.889726e+02=T 90.00000=T Traj:=T positionsangstrom=T Step:=T 0=T Bead:=T pbc="F F F"
C      -42.73970000     -33.63320000     -68.15340000
C      -43.86820000     -34.48170000     -68.27880000
C      -45.10590000     -33.87160000     -68.23560000
C      -45.33300000     -32.53750000     -67.81760000
C      -44.18100000     -31.76600000     -67.56390000
C      -42.97420000     -32.28380000     -67.79320000
H      -41.77400000     -34.07140000     -68.20350000
H      -45.97130000     -34.56790000     -68.31110000
H      -44.29780000     -30.74510000     -67.39720000
H      -42.05640000     -31.65760000     -67.90680000
C      -46.75240000     -32.03680000     -67.73450000
H      -46.87410000     -31.15080000     -67.06000000
H      -47.40170000     -32.81090000     -67.31670000
C      -43.79490000     -35.87440000     -68.76040000
H      -42.74650000     -36.11280000     -68.41900000
H      -44.53460000     -36.57100000     -68.30040000
S      -47.60110000     -31.42580000     -69.23340000
S      -43.91590000     -35.93850000     -70.58730000
C      -46.50170000     -31.42490000     -70.72520000
H      -46.04890000     -30.41720000     -70.86290000
H      -45.65360000     -32.20040000     -70.67750000
C      -45.71450000     -36.12200000     -70.82330000
H      -46.16920000     -36.28290000     -69.86940000
H      -45.84130000     -36.97220000     -71.53140000
C      -46.25220000     -34.80870000     -71.46290000
H      -47.34220000     -34.98000000     -71.57460000
H      -46.16120000     -33.90600000     -70.79970000
C      -47.31430000     -31.63720000     -71.95500000
H      -47.83960000     -30.73400000     -72.05180000
H      -47.98990000     -32.48020000     -71.71390000
C      -46.45020000     -31.98250000     -73.17060000
C      -46.15930000     -30.99680000     -74.08870000
C      -45.91460000     -33.26920000     -73.53740000
H      -46.47300000     -29.98010000     -74.10250000
C      -45.36310000     -33.29320000     -74.80460000
C      -45.69420000     -34.54880000     -72.84440000
C      -44.93250000     -35.42710000     -73.61990000
S      -45.25210000     -31.68840000     -75.42830000
S      -44.50550000     -34.76530000     -75.19800000
H      -44.64690000     -36.38400000     -73.36630000
