40
Properties=species:S:1:pos:R:3 #=T CELL(abcABC):=T 1.889726e+02=T 90.00000=T Traj:=T positionsangstrom=T Step:=T 0=T Bead:=T pbc="F F F"
C      -48.85040000     -31.47160000     -71.43050000
C      -47.79150000     -30.87160000     -70.71700000
C      -47.24680000     -31.58050000     -69.61580000
C      -47.73940000     -32.81160000     -69.32110000
C      -48.82580000     -33.37660000     -70.02080000
C      -49.30700000     -32.71800000     -71.11530000
H      -49.38550000     -30.95330000     -72.19930000
H      -46.39680000     -31.12370000     -69.06130000
H      -49.29570000     -34.31500000     -69.73360000
H      -50.16440000     -33.12770000     -71.67200000
C      -47.16550000     -33.59080000     -68.17860000
H      -47.86950000     -33.57780000     -67.38120000
H      -46.23210000     -33.23470000     -67.83740000
C      -47.12940000     -29.50590000     -71.18790000
H      -47.49650000     -29.30000000     -72.18770000
H      -47.26470000     -28.68060000     -70.47550000
S      -46.92800000     -35.36010000     -68.32770000
S      -45.26580000     -29.62200000     -71.21600000
C      -45.48550000     -35.31430000     -69.43110000
H      -44.57540000     -34.76210000     -69.11780000
H      -45.07600000     -36.34800000     -69.45680000
C      -44.99210000     -31.33250000     -71.90990000
H      -44.82790000     -31.30570000     -72.99100000
H      -45.94520000     -31.95850000     -71.85540000
C      -43.83270000     -32.00580000     -71.10630000
H      -43.20070000     -31.32060000     -70.63470000
H      -44.25520000     -32.46860000     -70.21550000
C      -45.82420000     -34.85860000     -70.92290000
H      -45.97830000     -33.82390000     -70.84030000
H      -46.75270000     -35.31690000     -71.16940000
C      -44.73290000     -35.21580000     -71.87730000
C      -44.76140000     -36.40410000     -72.57820000
C      -43.57780000     -34.42460000     -72.20570000
H      -45.58260000     -37.13450000     -72.65260000
C      -42.76090000     -35.04840000     -73.17560000
C      -43.11360000     -33.02430000     -71.93360000
C      -41.95830000     -32.74380000     -72.63260000
S      -43.46830000     -36.52140000     -73.73550000
S      -41.47800000     -34.05690000     -73.77940000
H      -41.30690000     -31.88730000     -72.56040000
