40
Properties=species:S:1:pos:R:3 #=T CELL(abcABC):=T 1.889726e+02=T 90.00000=T Traj:=T positionsangstrom=T Step:=T 0=T Bead:=T pbc="F F F"
C      -48.39070000     -31.78650000     -71.68790000
C      -47.61080000     -31.10950000     -70.76020000
C      -47.36630000     -31.78000000     -69.54330000
C      -48.00940000     -33.01870000     -69.36890000
C      -48.71690000     -33.71830000     -70.33420000
C      -49.07010000     -32.98270000     -71.45750000
H      -48.74470000     -31.25300000     -72.56650000
H      -46.80610000     -31.43170000     -68.69380000
H      -48.96560000     -34.74820000     -70.13770000
H      -49.70830000     -33.34280000     -72.24780000
C      -47.62590000     -33.80640000     -68.14420000
H      -48.49780000     -33.85150000     -67.52200000
H      -46.95890000     -33.15940000     -67.59570000
C      -47.16510000     -29.73940000     -71.08900000
H      -47.60710000     -29.38140000     -72.00450000
H      -47.53230000     -29.02040000     -70.35250000
S      -46.95350000     -35.45400000     -68.33800000
S      -45.33340000     -29.28980000     -71.11190000
C      -45.63450000     -35.15130000     -69.55580000
H      -44.90890000     -34.39230000     -69.14020000
H      -45.00190000     -36.08860000     -69.58710000
C      -44.62810000     -30.63490000     -72.21360000
H      -43.77700000     -30.11710000     -72.75720000
H      -45.47780000     -30.95350000     -72.78650000
C      -44.19790000     -31.88490000     -71.40260000
H      -43.74940000     -31.57820000     -70.46610000
H      -45.14990000     -32.25470000     -71.23050000
C      -45.89530000     -34.85020000     -71.04010000
H      -46.27450000     -33.79910000     -71.08970000
H      -46.70340000     -35.48990000     -71.24260000
C      -44.77960000     -35.16600000     -71.91970000
C      -44.70950000     -36.44290000     -72.38370000
C      -43.69000000     -34.28870000     -72.35380000
H      -45.29270000     -37.35850000     -72.19500000
C      -42.79340000     -35.00120000     -73.15800000
C      -43.34960000     -32.87580000     -72.15750000
C      -42.15340000     -32.55060000     -72.76110000
S      -43.18280000     -36.71190000     -73.24920000
S      -41.37060000     -33.94910000     -73.53880000
H      -41.74720000     -31.53990000     -73.04650000
