40
Properties=species:S:1:pos:R:3 #=T CELL(abcABC):=T 1.889726e+02=T 90.00000=T Traj:=T positionsangstrom=T Step:=T 0=T Bead:=T pbc="F F F"
C      -48.88340000     -31.89660000     -72.06990000
C      -47.93920000     -31.39200000     -71.19340000
C      -47.58370000     -32.11810000     -70.07900000
C      -48.24050000     -33.31100000     -69.76070000
C      -49.31240000     -33.73080000     -70.56080000
C      -49.62710000     -33.01580000     -71.65030000
H      -49.18290000     -31.41550000     -72.94600000
H      -46.72180000     -31.78860000     -69.40810000
H      -49.81710000     -34.66710000     -70.27990000
H      -50.46910000     -33.35530000     -72.19880000
C      -47.86850000     -34.10370000     -68.44900000
H      -48.76460000     -33.98500000     -67.88040000
H      -47.12390000     -33.39830000     -68.04830000
C      -47.33310000     -29.93150000     -71.42010000
H      -47.33390000     -29.57030000     -72.46040000
H      -47.96430000     -29.30330000     -70.86910000
S      -47.24600000     -35.77940000     -68.74940000
S      -45.76430000     -29.68080000     -70.56570000
C      -45.57340000     -35.38600000     -69.44510000
H      -45.06060000     -34.52740000     -69.03110000
H      -44.90130000     -36.23500000     -69.27800000
C      -44.46180000     -30.37270000     -71.56700000
H      -43.48500000     -30.27220000     -71.12590000
H      -44.39990000     -29.91030000     -72.57720000
C      -44.72330000     -31.90180000     -71.61270000
H      -44.86440000     -32.33650000     -70.61710000
H      -45.74540000     -32.14180000     -71.97610000
C      -45.49740000     -35.17870000     -70.98660000
H      -45.95460000     -34.21740000     -71.25100000
H      -46.13980000     -36.01340000     -71.44180000
C      -44.13410000     -35.24530000     -71.58190000
C      -43.47280000     -36.42550000     -71.73680000
C      -43.40160000     -34.13810000     -72.17050000
H      -43.75580000     -37.36570000     -71.37970000
C      -42.29150000     -34.57930000     -72.84670000
C      -43.63470000     -32.68750000     -72.33910000
C      -42.75060000     -32.17650000     -73.26670000
S      -41.96400000     -36.26640000     -72.59370000
S      -41.47270000     -33.31700000     -73.75680000
H      -42.49990000     -31.18450000     -73.35900000
