40
Properties=species:S:1:pos:R:3 #=T CELL(abcABC):=T 1.889726e+02=T 90.00000=T Traj:=T positionsangstrom=T Step:=T 0=T Bead:=T pbc="F F F"
C      -49.15800000     -32.14320000     -72.23250000
C      -48.35870000     -31.53380000     -71.21920000
C      -48.02730000     -32.32680000     -70.09940000
C      -48.29540000     -33.65420000     -69.94660000
C      -49.02770000     -34.30040000     -70.99250000
C      -49.52970000     -33.50140000     -72.04310000
H      -49.32310000     -31.57170000     -73.11690000
H      -47.47400000     -31.80190000     -69.27970000
H      -49.07380000     -35.39450000     -70.98990000
H      -50.15680000     -33.90020000     -72.84820000
C      -47.82170000     -34.32780000     -68.64340000
H      -48.61220000     -34.56250000     -67.93180000
H      -47.15270000     -33.73250000     -68.02250000
C      -47.97710000     -30.06870000     -71.36640000
H      -48.20480000     -29.70470000     -72.32060000
H      -48.66800000     -29.50310000     -70.75190000
S      -46.98480000     -35.98610000     -68.85470000
S      -46.32080000     -29.57500000     -70.97200000
C      -45.33040000     -35.39960000     -69.61380000
H      -45.08530000     -34.48360000     -69.20250000
H      -44.53110000     -36.08320000     -69.19990000
C      -45.32700000     -30.59330000     -72.10900000
H      -44.33130000     -30.15310000     -72.12280000
H      -45.74150000     -30.63840000     -73.09560000
C      -45.00620000     -32.03570000     -71.66790000
H      -44.77320000     -32.16150000     -70.61440000
H      -45.83630000     -32.66420000     -71.87860000
C      -45.39210000     -35.41280000     -71.11940000
H      -46.00860000     -34.57010000     -71.40190000
H      -45.81740000     -36.37020000     -71.33570000
C      -43.99800000     -35.27610000     -71.72540000
C      -43.11440000     -36.33860000     -71.79500000
C      -43.30830000     -34.01590000     -72.14170000
H      -43.48700000     -37.36040000     -71.81460000
C      -42.01000000     -34.22500000     -72.44720000
C      -43.64500000     -32.58460000     -72.25910000
C      -42.56380000     -31.82270000     -72.53680000
S      -41.52480000     -35.89360000     -72.43440000
S      -41.09690000     -32.73360000     -72.86610000
H      -42.59800000     -30.76960000     -72.76780000
