40
Properties=species:S:1:pos:R:3 #=T CELL(abcABC):=T 1.889726e+02=T 90.00000=T Traj:=T positionsangstrom=T Step:=T 0=T Bead:=T pbc="F F F"
C      -43.78750000     -34.54550000     -67.75970000
C      -45.10990000     -34.61900000     -68.17210000
C      -45.92070000     -33.48280000     -68.07430000
C      -45.32940000     -32.21730000     -67.91070000
C      -43.95580000     -32.11560000     -67.63010000
C      -43.23960000     -33.31490000     -67.58890000
H      -43.19340000     -35.47370000     -67.64950000
H      -47.01830000     -33.61880000     -68.19370000
H      -43.47020000     -31.10450000     -67.69310000
H      -42.19540000     -33.22090000     -67.39950000
C      -46.17830000     -30.93410000     -67.97640000
H      -45.50240000     -30.01430000     -68.00170000
H      -46.79960000     -30.76680000     -67.13500000
C      -45.55060000     -36.03000000     -68.53220000
H      -45.19410000     -36.71840000     -67.76890000
H      -46.62030000     -36.04750000     -68.56190000
S      -47.23700000     -30.91250000     -69.44760000
S      -44.99030000     -36.55460000     -70.26910000
C      -46.05130000     -31.17050000     -70.86770000
H      -45.38930000     -30.34110000     -71.17840000
H      -45.42160000     -31.95930000     -70.61990000
C      -46.47110000     -36.19360000     -71.29620000
H      -47.38830000     -36.41120000     -70.76150000
H      -46.49840000     -36.77930000     -72.14110000
C      -46.54980000     -34.79560000     -71.85260000
H      -47.69310000     -34.59900000     -72.17950000
H      -46.28530000     -34.06400000     -71.12060000
C      -46.82840000     -31.46630000     -72.12440000
H      -47.39130000     -30.56630000     -72.47400000
H      -47.51300000     -32.24860000     -71.99940000
C      -45.84960000     -31.78360000     -73.20430000
C      -45.23150000     -30.85940000     -74.03170000
C      -45.58350000     -33.17970000     -73.62610000
H      -45.28870000     -29.78670000     -73.88970000
C      -44.76470000     -33.24110000     -74.78260000
C      -45.70450000     -34.51720000     -73.03760000
C      -44.98360000     -35.50650000     -73.66090000
S      -44.22720000     -31.64570000     -75.35270000
S      -43.93340000     -34.76980000     -75.00590000
H      -44.81260000     -36.51700000     -73.47560000
