40
Properties=species:S:1:pos:R:3 #=T CELL(abcABC):=T 1.889726e+02=T 90.00000=T Traj:=T positionsangstrom=T Step:=T 0=T Bead:=T pbc="F F F"
C      -45.85790000     -31.57940000     -73.01560000
C      -44.66390000     -32.03280000     -73.55720000
C      -44.56680000     -33.36470000     -73.91320000
C      -45.75890000     -34.22080000     -73.92900000
C      -46.98540000     -33.61250000     -73.61680000
C      -47.03430000     -32.28750000     -73.19030000
H      -45.82870000     -30.66950000     -72.53630000
H      -43.57320000     -33.74280000     -74.18400000
H      -47.88420000     -34.20020000     -73.70730000
H      -47.98030000     -31.82480000     -72.80170000
C      -45.78580000     -35.70330000     -74.21760000
H      -44.96690000     -35.98640000     -74.88980000
H      -46.75380000     -35.91020000     -74.79670000
C      -43.47250000     -31.16200000     -73.46870000
H      -42.68790000     -31.49340000     -74.15000000
H      -43.76820000     -30.14450000     -73.72950000
S      -45.97400000     -36.72160000     -72.70110000
S      -42.79320000     -30.95260000     -71.68000000
C      -44.42030000     -36.16620000     -71.95530000
H      -43.52720000     -36.70680000     -72.25880000
H      -44.12620000     -35.25680000     -72.46450000
C      -42.62040000     -32.73160000     -71.34160000
H      -41.74690000     -33.20640000     -71.70690000
H      -43.49340000     -33.25250000     -71.77660000
C      -42.74540000     -33.03160000     -69.79070000
H      -42.66450000     -34.14300000     -69.67640000
H      -42.04390000     -32.48280000     -69.11610000
C      -44.52540000     -35.94580000     -70.38970000
H      -43.49360000     -35.91800000     -69.98500000
H      -44.88590000     -36.90030000     -69.98840000
C      -45.59790000     -34.86590000     -69.96910000
C      -46.91990000     -35.19120000     -70.06130000
C      -45.36730000     -33.49210000     -69.51640000
H      -47.23440000     -36.18660000     -70.36380000
C      -46.55000000     -32.89700000     -69.15230000
C      -44.22220000     -32.62420000     -69.39910000
C      -44.58710000     -31.42360000     -68.83450000
S      -48.02070000     -33.86560000     -69.62880000
S      -46.34790000     -31.19880000     -68.54250000
H      -44.04210000     -30.49340000     -68.60280000
