40
Properties=species:S:1:pos:R:3 #=T CELL(abcABC):=T 1.889726e+02=T 90.00000=T Traj:=T positionsangstrom=T Step:=T 0=T Bead:=T pbc="F F F"
C      -49.10560000     -32.03110000     -72.14440000
C      -48.22820000     -31.50340000     -71.19250000
C      -47.78800000     -32.33230000     -70.12750000
C      -48.26680000     -33.62090000     -69.95920000
C      -49.15970000     -34.11990000     -70.83580000
C      -49.65320000     -33.28520000     -71.88140000
H      -49.42710000     -31.33960000     -72.90040000
H      -47.08060000     -31.81500000     -69.38630000
H      -49.59460000     -35.11570000     -70.70790000
H      -50.42140000     -33.65180000     -72.53110000
C      -47.96320000     -34.38820000     -68.68500000
H      -48.91150000     -34.57230000     -68.22510000
H      -47.35960000     -33.65610000     -68.02490000
C      -47.91020000     -30.05940000     -71.33850000
H      -48.08370000     -29.49200000     -72.27380000
H      -48.52440000     -29.50710000     -70.55690000
S      -47.05150000     -35.95580000     -68.92010000
S      -46.17650000     -29.66900000     -70.75570000
C      -45.39740000     -35.54210000     -69.54180000
H      -44.95580000     -34.66610000     -68.97000000
H      -44.73650000     -36.45970000     -69.34780000
C      -45.11230000     -30.52890000     -72.04960000
H      -44.22760000     -29.86260000     -72.06980000
H      -45.54850000     -30.53220000     -73.05650000
C      -44.89240000     -31.94210000     -71.65770000
H      -44.87710000     -31.98500000     -70.55650000
H      -45.76400000     -32.56850000     -71.80790000
C      -45.36540000     -35.31780000     -71.06500000
H      -45.90800000     -34.44860000     -71.37580000
H      -45.86930000     -36.07840000     -71.67310000
C      -43.97100000     -35.23880000     -71.62510000
C      -43.12960000     -36.33710000     -71.66850000
C      -43.30090000     -34.02690000     -72.03520000
H      -43.35200000     -37.36050000     -71.22140000
C      -42.02560000     -34.28410000     -72.57720000
C      -43.62330000     -32.60350000     -72.19860000
C      -42.57120000     -31.88550000     -72.68530000
S      -41.62090000     -35.92860000     -72.44850000
S      -41.23070000     -32.87670000     -73.29910000
H      -42.47490000     -30.74490000     -72.80600000
