40
Properties=species:S:1:pos:R:3 #=T CELL(abcABC):=T 1.889726e+02=T 90.00000=T Traj:=T positionsangstrom=T Step:=T 0=T Bead:=T pbc="F F F"
C      -47.72880000     -36.43400000     -71.46490000
C      -46.50800000     -36.23670000     -70.92230000
C      -45.32480000     -36.29940000     -71.70210000
C      -45.43230000     -36.50750000     -73.09220000
C      -46.69280000     -36.67020000     -73.65350000
C      -47.81780000     -36.73010000     -72.82310000
H      -48.66540000     -36.31570000     -70.89080000
H      -44.39640000     -36.26380000     -71.27440000
H      -46.72000000     -36.83040000     -74.67720000
H      -48.72900000     -36.93970000     -73.32800000
C      -44.22280000     -36.71780000     -73.91740000
H      -44.39480000     -37.25490000     -74.84130000
H      -43.49630000     -37.23740000     -73.33780000
C      -46.33060000     -36.10780000     -69.43560000
H      -47.23290000     -36.40200000     -68.86730000
H      -45.42840000     -36.56150000     -69.09080000
S      -43.47840000     -35.06360000     -74.51750000
S      -46.07530000     -34.31580000     -68.96620000
C      -43.03910000     -34.15210000     -72.86840000
H      -42.69160000     -34.88830000     -72.11520000
H      -42.20150000     -33.48470000     -73.20770000
C      -47.65610000     -33.54940000     -69.52280000
H      -48.24760000     -32.91780000     -68.79110000
H      -48.30460000     -34.39800000     -69.88040000
C      -47.35650000     -32.70850000     -70.81860000
H      -46.92680000     -33.27910000     -71.61520000
H      -48.35020000     -32.31700000     -71.25870000
C      -44.32020000     -33.33180000     -72.40160000
H      -44.94120000     -34.05260000     -71.78010000
H      -44.94500000     -33.03640000     -73.24730000
C      -44.09850000     -32.08150000     -71.58840000
C      -42.89720000     -31.34810000     -71.55590000
C      -45.14100000     -31.30860000     -70.87830000
H      -41.96140000     -31.68660000     -72.13310000
C      -44.64530000     -30.06840000     -70.46170000
C      -46.51440000     -31.52500000     -70.46790000
C      -46.94430000     -30.46970000     -69.66670000
S      -42.94250000     -29.86020000     -70.73820000
S      -45.74160000     -29.29410000     -69.33190000
H      -47.93940000     -30.28260000     -69.28860000
