40
Properties=species:S:1:pos:R:3 #=T CELL(abcABC):=T 1.889726e+02=T 90.00000=T Traj:=T positionsangstrom=T Step:=T 0=T Bead:=T pbc="F F F"
C      -46.42330000     -32.06360000     -73.18200000
C      -45.43550000     -32.81060000     -73.77210000
C      -45.59320000     -34.22290000     -73.75640000
C      -46.62530000     -34.86770000     -73.14640000
C      -47.66780000     -34.11180000     -72.53210000
C      -47.56080000     -32.70700000     -72.67890000
H      -46.36780000     -30.99400000     -73.10960000
H      -44.91020000     -34.84440000     -74.40870000
H      -48.60530000     -34.55000000     -72.26940000
H      -48.34810000     -32.12070000     -72.24150000
C      -46.63820000     -36.38300000     -73.02650000
H      -46.06970000     -36.86590000     -73.75190000
H      -47.66800000     -36.65920000     -73.05070000
C      -44.25240000     -32.22920000     -74.44890000
H      -43.79120000     -33.02130000     -75.03980000
H      -44.54990000     -31.36320000     -75.14590000
S      -45.87850000     -36.90820000     -71.35970000
S      -42.97610000     -31.44160000     -73.27890000
C      -44.28270000     -35.96380000     -71.37610000
H      -43.43120000     -36.58280000     -71.67050000
H      -44.40590000     -35.08730000     -71.98210000
C      -42.49460000     -32.91360000     -72.11310000
H      -41.51430000     -33.32470000     -72.42610000
H      -43.28570000     -33.63990000     -72.32060000
C      -42.53070000     -32.41980000     -70.69130000
H      -42.14410000     -33.22450000     -70.04060000
H      -41.85410000     -31.60820000     -70.49900000
C      -44.05630000     -35.47450000     -69.90160000
H      -42.99030000     -35.22920000     -69.69130000
H      -44.36450000     -36.35870000     -69.23200000
C      -45.02130000     -34.37240000     -69.49940000
C      -46.17460000     -34.75040000     -68.85270000
C      -44.92630000     -32.97630000     -69.69270000
H      -46.45100000     -35.78790000     -68.81220000
C      -46.03780000     -32.27370000     -69.28050000
C      -43.95720000     -32.05330000     -70.23960000
C      -44.37930000     -30.76930000     -70.24010000
S      -47.26300000     -33.37210000     -68.57900000
S      -46.00460000     -30.54630000     -69.67830000
H      -43.88140000     -29.93720000     -70.69670000
