40
Properties=species:S:1:pos:R:3 #=T CELL(abcABC):=T 1.889726e+02=T 90.00000=T Traj:=T positionsangstrom=T Step:=T 0=T Bead:=T pbc="F F F"
C      -46.26060000     -31.65660000     -73.41500000
C      -45.20650000     -32.51350000     -73.80250000
C      -45.29590000     -33.88310000     -73.52000000
C      -46.48500000     -34.41760000     -72.96840000
C      -47.52230000     -33.56720000     -72.60030000
C      -47.43050000     -32.21220000     -72.86550000
H      -46.28320000     -30.60040000     -73.70230000
H      -44.44670000     -34.47410000     -73.82640000
H      -48.43540000     -33.93640000     -72.08060000
H      -48.23690000     -31.58120000     -72.56720000
C      -46.64320000     -35.90020000     -72.78440000
H      -46.69920000     -36.40350000     -73.74210000
H      -47.60390000     -36.15320000     -72.39000000
C      -43.99860000     -31.84760000     -74.34210000
H      -43.35640000     -32.42810000     -75.08840000
H      -44.32620000     -30.96730000     -74.89770000
S      -45.60760000     -36.95510000     -71.53140000
S      -42.94440000     -31.17430000     -73.03120000
C      -44.01540000     -36.15390000     -71.14030000
H      -43.24330000     -36.88020000     -71.32620000
H      -43.77200000     -35.32260000     -71.80760000
C      -42.46560000     -32.67890000     -72.14290000
H      -41.39270000     -32.95270000     -72.34990000
H      -42.98750000     -33.53430000     -72.62060000
C      -42.71660000     -32.64280000     -70.64130000
H      -42.52580000     -33.56000000     -70.23440000
H      -42.07330000     -31.92660000     -70.15480000
C      -43.96660000     -35.76810000     -69.72500000
H      -42.95780000     -35.40440000     -69.34330000
H      -44.07650000     -36.72680000     -69.19390000
C      -45.08700000     -34.73550000     -69.41440000
C      -46.37060000     -35.07460000     -69.07770000
C      -45.04540000     -33.29000000     -69.72610000
H      -46.84750000     -36.01030000     -68.76440000
C      -46.25520000     -32.62830000     -69.38010000
C      -44.14610000     -32.27210000     -70.20040000
C      -44.66850000     -31.00390000     -70.19120000
S      -47.46530000     -33.72890000     -68.91100000
S      -46.32450000     -30.89850000     -69.66840000
H      -44.07350000     -30.10090000     -70.34000000
