40
Properties=species:S:1:pos:R:3 #=T CELL(abcABC):=T 1.889726e+02=T 90.00000=T Traj:=T positionsangstrom=T Step:=T 0=T Bead:=T pbc="F F F"
C      -45.93470000     -31.59920000     -72.95840000
C      -44.87950000     -32.31010000     -73.47530000
C      -45.10390000     -33.68590000     -73.60270000
C      -46.24780000     -34.36220000     -73.29600000
C      -47.38360000     -33.54960000     -72.81020000
C      -47.14700000     -32.19890000     -72.58070000
H      -45.95380000     -30.52490000     -72.88930000
H      -44.21180000     -34.15650000     -74.02780000
H      -48.37520000     -34.01240000     -72.55100000
H      -47.89380000     -31.49980000     -72.24020000
C      -46.34540000     -35.82780000     -73.50640000
H      -45.67780000     -36.15310000     -74.35440000
H      -47.37200000     -36.01220000     -73.77580000
C      -43.61430000     -31.69240000     -73.95110000
H      -43.07040000     -32.36260000     -74.63450000
H      -43.87950000     -30.73290000     -74.47240000
S      -45.82410000     -36.86530000     -72.11300000
S      -42.40020000     -31.11540000     -72.64530000
C      -44.21880000     -36.00680000     -71.61800000
H      -43.36610000     -36.64520000     -71.78980000
H      -44.02050000     -35.03810000     -72.15940000
C      -42.33300000     -32.73420000     -71.69700000
H      -41.23540000     -32.87830000     -71.74300000
H      -42.82360000     -33.47790000     -72.33260000
C      -42.82860000     -32.67600000     -70.22420000
H      -42.65900000     -33.64350000     -69.78040000
H      -42.18180000     -31.92960000     -69.78590000
C      -44.25440000     -35.71720000     -70.12830000
H      -43.27300000     -35.23370000     -69.88460000
H      -44.26700000     -36.68260000     -69.56090000
C      -45.33180000     -34.80410000     -69.65900000
C      -46.49230000     -35.25040000     -69.08680000
C      -45.33110000     -33.30390000     -69.73810000
H      -46.86690000     -36.30210000     -69.16100000
C      -46.60740000     -32.73670000     -69.46590000
C      -44.30010000     -32.26470000     -69.99970000
C      -44.82960000     -31.01140000     -69.99100000
S      -47.75620000     -33.95930000     -68.91330000
S      -46.57020000     -31.06050000     -69.49960000
H      -44.29030000     -30.06020000     -70.13440000
