40
Properties=species:S:1:pos:R:3 #=T CELL(abcABC):=T 1.889726e+02=T 90.00000=T Traj:=T positionsangstrom=T Step:=T 0=T Bead:=T pbc="F F F"
C      -46.49960000     -31.83990000     -73.45400000
C      -45.36720000     -32.64310000     -73.79910000
C      -45.45120000     -33.99590000     -73.60890000
C      -46.57680000     -34.61010000     -72.97560000
C      -47.58470000     -33.78180000     -72.47450000
C      -47.57080000     -32.38140000     -72.68290000
H      -46.56080000     -30.73140000     -73.60900000
H      -44.63630000     -34.65650000     -73.86150000
H      -48.40520000     -34.11890000     -71.82210000
H      -48.39030000     -31.78230000     -72.28040000
C      -46.68990000     -36.16650000     -72.87560000
H      -46.26520000     -36.53930000     -73.86320000
H      -47.78750000     -36.53820000     -72.79380000
C      -44.15890000     -32.02440000     -74.45570000
H      -43.67770000     -32.72110000     -75.05060000
H      -44.49500000     -31.18050000     -75.10710000
S      -45.70790000     -37.02160000     -71.57850000
S      -42.97430000     -31.34550000     -73.17180000
C      -44.16500000     -36.04570000     -71.19330000
H      -43.29760000     -36.57440000     -71.56550000
H      -44.31620000     -35.17570000     -71.87280000
C      -42.46580000     -32.82250000     -72.12380000
H      -41.44900000     -33.06840000     -72.40990000
H      -43.12920000     -33.63170000     -72.33490000
C      -42.53160000     -32.41910000     -70.58490000
H      -41.89560000     -33.10780000     -69.93620000
H      -41.96650000     -31.46900000     -70.56320000
C      -43.95970000     -35.53160000     -69.71220000
H      -42.99650000     -35.11580000     -69.70640000
H      -43.98500000     -36.36620000     -69.00380000
C      -45.06250000     -34.56320000     -69.30650000
C      -46.28810000     -34.92860000     -68.79000000
C      -44.96430000     -33.14330000     -69.61310000
H      -46.58080000     -35.90400000     -68.61000000
C      -46.16600000     -32.46930000     -69.38380000
C      -43.95110000     -32.18380000     -70.15980000
C      -44.40010000     -30.90030000     -70.19180000
S      -47.41410000     -33.56630000     -68.79660000
S      -46.13410000     -30.75410000     -69.79280000
H      -43.79210000     -30.04950000     -70.33050000
