40
Properties=species:S:1:pos:R:3 #=T CELL(abcABC):=T 1.889726e+02=T 90.00000=T Traj:=T positionsangstrom=T Step:=T 0=T Bead:=T pbc="F F F"
C      -46.38970000     -32.36930000     -73.46760000
C      -45.49750000     -33.22480000     -74.12480000
C      -45.62840000     -34.61450000     -73.95390000
C      -46.55580000     -35.12720000     -72.99810000
C      -47.49180000     -34.21000000     -72.37730000
C      -47.32390000     -32.83580000     -72.53430000
H      -46.16910000     -31.26650000     -73.45610000
H      -44.94290000     -35.26420000     -74.59710000
H      -48.31160000     -34.67350000     -71.78620000
H      -47.86510000     -32.08050000     -71.92770000
C      -46.63320000     -36.58370000     -72.66930000
H      -46.11490000     -37.05320000     -73.50030000
H      -47.77030000     -36.82370000     -72.61360000
C      -44.29720000     -32.75850000     -74.93090000
H      -43.58430000     -33.49290000     -75.37920000
H      -44.61080000     -31.99190000     -75.70990000
S      -46.04170000     -36.89910000     -70.92260000
S      -43.25660000     -31.70770000     -73.73240000
C      -44.31030000     -36.19340000     -70.82050000
H      -43.56540000     -37.01570000     -70.70050000
H      -44.07260000     -35.54960000     -71.69260000
C      -42.65310000     -33.02820000     -72.52370000
H      -41.66270000     -33.40980000     -72.85340000
H      -43.37720000     -33.89730000     -72.41390000
C      -42.58100000     -32.49000000     -71.03210000
H      -42.15120000     -33.26140000     -70.39300000
H      -41.83400000     -31.74450000     -71.06420000
C      -44.20720000     -35.31010000     -69.53010000
H      -43.13160000     -34.97150000     -69.56030000
H      -44.23200000     -36.04530000     -68.64130000
C      -45.10380000     -34.12510000     -69.37310000
C      -46.22840000     -34.32240000     -68.60160000
C      -44.90910000     -32.73670000     -69.79460000
H      -46.53100000     -35.33730000     -68.18190000
C      -46.01050000     -31.99320000     -69.34660000
C      -43.87030000     -31.93380000     -70.44930000
C      -44.24300000     -30.58320000     -70.51660000
S      -47.18820000     -32.92770000     -68.40800000
S      -45.71710000     -30.25540000     -69.63780000
H      -43.58320000     -29.70430000     -70.80640000
