40
Properties=species:S:1:pos:R:3 #=T CELL(abcABC):=T 1.889726e+02=T 90.00000=T Traj:=T positionsangstrom=T Step:=T 0=T Bead:=T pbc="F F F"
C      -46.48580000     -33.05800000     -73.72690000
C      -45.53940000     -34.08930000     -73.97630000
C      -45.55210000     -35.26120000     -73.23680000
C      -46.55050000     -35.39950000     -72.27890000
C      -47.48430000     -34.39140000     -72.03250000
C      -47.49000000     -33.20870000     -72.76730000
H      -46.27460000     -32.09730000     -74.16590000
H      -44.86710000     -36.08580000     -73.36070000
H      -48.17370000     -34.56150000     -71.22230000
H      -48.09780000     -32.39270000     -72.48440000
C      -46.73950000     -36.71140000     -71.49100000
H      -46.43440000     -37.61750000     -71.96370000
H      -47.83490000     -36.77200000     -71.34260000
C      -44.41200000     -33.85040000     -74.94730000
H      -44.01540000     -34.83730000     -75.14200000
H      -44.46910000     -33.37560000     -75.85770000
S      -46.11040000     -36.49990000     -69.73730000
S      -43.03770000     -32.92620000     -74.14350000
C      -44.41480000     -35.82700000     -69.84840000
H      -43.57940000     -36.50080000     -69.57740000
H      -44.32510000     -35.46410000     -70.83610000
C      -42.71970000     -33.59530000     -72.46910000
H      -41.94490000     -34.34560000     -72.52140000
H      -43.64320000     -34.24170000     -72.22250000
C      -42.53220000     -32.53360000     -71.36680000
H      -42.14090000     -33.09350000     -70.44250000
H      -41.79890000     -31.88750000     -71.73650000
C      -44.26160000     -34.70550000     -68.74700000
H      -43.16790000     -34.48740000     -68.76340000
H      -44.49460000     -35.08940000     -67.77340000
C      -45.05130000     -33.42690000     -69.03520000
C      -46.20320000     -33.24960000     -68.36380000
C      -44.84340000     -32.35100000     -70.03930000
H      -46.54190000     -33.83680000     -67.49170000
C      -45.89110000     -31.42020000     -69.98650000
C      -43.79810000     -31.84850000     -70.94500000
C      -44.09280000     -30.53370000     -71.43740000
S      -47.24410000     -31.89940000     -68.98190000
S      -45.71080000     -29.98810000     -70.92470000
H      -43.38990000     -29.87910000     -71.79670000
