40
Properties=species:S:1:pos:R:3 #=T CELL(abcABC):=T 1.889726e+02=T 90.00000=T Traj:=T positionsangstrom=T Step:=T 0=T Bead:=T pbc="F F F"
C      -46.45760000     -32.47140000     -73.29710000
C      -45.57450000     -33.40020000     -73.88170000
C      -45.77730000     -34.76090000     -73.54540000
C      -46.69490000     -35.15740000     -72.61110000
C      -47.62950000     -34.21850000     -72.08940000
C      -47.46810000     -32.92790000     -72.44420000
H      -46.50840000     -31.44210000     -73.58230000
H      -45.18780000     -35.53980000     -73.86930000
H      -48.40720000     -34.69290000     -71.47150000
H      -48.25700000     -32.28510000     -72.07150000
C      -46.61030000     -36.60190000     -72.15900000
H      -45.86290000     -37.10140000     -72.89970000
H      -47.61740000     -37.00400000     -72.23810000
C      -44.41110000     -32.98820000     -74.72150000
H      -44.09540000     -33.74500000     -75.41780000
H      -44.67360000     -32.14130000     -75.28280000
S      -46.03320000     -36.85060000     -70.40250000
S      -43.01590000     -32.21120000     -73.87430000
C      -44.28260000     -36.02440000     -70.46470000
H      -43.49470000     -36.72820000     -70.51450000
H      -44.39530000     -35.43580000     -71.35780000
C      -42.54060000     -33.30760000     -72.46330000
H      -41.51730000     -33.63180000     -72.71510000
H      -43.15250000     -34.18260000     -72.47540000
C      -42.54370000     -32.56330000     -71.10300000
H      -42.09260000     -33.19180000     -70.26180000
H      -41.89480000     -31.68520000     -71.14040000
C      -44.10110000     -35.05660000     -69.27430000
H      -43.04790000     -34.65170000     -69.27000000
H      -44.13960000     -35.55410000     -68.32630000
C      -45.10880000     -33.92630000     -69.26700000
C      -46.32720000     -34.01080000     -68.71610000
C      -44.89430000     -32.64450000     -69.91020000
H      -46.67320000     -34.74830000     -68.04050000
C      -45.97150000     -31.75330000     -69.71060000
C      -43.86980000     -32.00560000     -70.67400000
C      -44.07800000     -30.72120000     -71.06670000
S      -47.27560000     -32.51510000     -68.74020000
S      -45.69920000     -30.16610000     -70.38830000
H      -43.36540000     -30.11990000     -71.53510000
