40
Properties=species:S:1:pos:R:3 #=T CELL(abcABC):=T 1.889726e+02=T 90.00000=T Traj:=T positionsangstrom=T Step:=T 0=T Bead:=T pbc="F F F"
C      -46.39280000     -32.60080000     -73.38090000
C      -45.50580000     -33.54750000     -73.82370000
C      -45.54260000     -34.84590000     -73.30350000
C      -46.68900000     -35.24830000     -72.50920000
C      -47.52850000     -34.24800000     -72.05990000
C      -47.45350000     -32.92390000     -72.56480000
H      -46.12200000     -31.59300000     -73.60710000
H      -44.74570000     -35.49860000     -73.77030000
H      -48.42250000     -34.52370000     -71.44460000
H      -48.08390000     -32.13760000     -72.12720000
C      -46.64980000     -36.64230000     -71.93860000
H      -45.94740000     -37.17760000     -72.59000000
H      -47.70810000     -37.14250000     -72.05080000
C      -44.33370000     -33.28040000     -74.66430000
H      -43.81930000     -34.22450000     -74.96570000
H      -44.60560000     -32.80170000     -75.65440000
S      -46.34230000     -36.85520000     -70.10670000
S      -42.84400000     -32.29900000     -73.90000000
C      -44.61040000     -36.22920000     -70.09260000
H      -43.91090000     -37.08450000     -69.97400000
H      -44.34910000     -35.79850000     -71.04650000
C      -42.38880000     -33.29680000     -72.42970000
H      -41.36280000     -33.54460000     -72.60430000
H      -42.83990000     -34.32960000     -72.41280000
C      -42.43750000     -32.51690000     -71.14520000
H      -42.04190000     -33.10140000     -70.33200000
H      -41.82430000     -31.64210000     -71.16670000
C      -44.26020000     -35.10780000     -69.08750000
H      -43.23720000     -34.83780000     -69.33560000
H      -44.28380000     -35.46570000     -68.01690000
C      -45.08250000     -33.73660000     -69.15170000
C      -46.28240000     -33.59510000     -68.48930000
C      -44.87360000     -32.60080000     -70.05650000
H      -46.74560000     -34.33930000     -67.84170000
C      -45.96540000     -31.70430000     -69.92820000
C      -43.81580000     -31.99250000     -70.85740000
C      -44.13140000     -30.73040000     -71.28420000
S      -47.20170000     -32.16400000     -68.78720000
S      -45.81060000     -30.26700000     -70.90050000
H      -43.50630000     -29.99510000     -71.86450000
