40
Properties=species:S:1:pos:R:3 #=T CELL(abcABC):=T 1.889726e+02=T 90.00000=T Traj:=T positionsangstrom=T Step:=T 0=T Bead:=T pbc="F F F"
C      -47.70330000     -36.73760000     -71.28460000
C      -46.51590000     -36.64500000     -70.48550000
C      -45.27830000     -36.57190000     -71.15390000
C      -45.24270000     -36.68070000     -72.53680000
C      -46.39710000     -36.78410000     -73.41040000
C      -47.59170000     -36.81200000     -72.73020000
H      -48.65210000     -36.80270000     -70.78560000
H      -44.39770000     -36.22060000     -70.59510000
H      -46.28010000     -36.81710000     -74.47680000
H      -48.47060000     -37.00370000     -73.27140000
C      -43.92560000     -36.67250000     -73.21560000
H      -43.80260000     -37.62190000     -73.75560000
H      -43.11310000     -36.50400000     -72.56310000
C      -46.49090000     -36.03150000     -69.07130000
H      -47.40130000     -36.05920000     -68.40150000
H      -45.64370000     -36.53080000     -68.45710000
S      -43.80340000     -35.32300000     -74.47510000
S      -46.07480000     -34.17600000     -69.13420000
C      -43.53870000     -33.85410000     -73.42250000
H      -42.75290000     -34.16650000     -72.68350000
H      -42.96500000     -33.13250000     -74.03330000
C      -47.64810000     -33.43340000     -69.70060000
H      -48.13590000     -32.89420000     -68.88330000
H      -48.39030000     -34.28580000     -69.95240000
C      -47.51920000     -32.43170000     -70.87090000
H      -46.97170000     -32.92620000     -71.70120000
H      -48.43610000     -32.10640000     -71.22850000
C      -44.74210000     -33.15850000     -72.80710000
H      -45.51200000     -33.73800000     -72.35440000
H      -45.30170000     -32.75740000     -73.70820000
C      -44.29170000     -31.96020000     -71.99400000
C      -43.00430000     -31.46740000     -71.98970000
C      -45.14750000     -31.21050000     -70.98310000
H      -42.12430000     -31.87920000     -72.61240000
C      -44.48290000     -30.11310000     -70.46070000
C      -46.49110000     -31.30240000     -70.47000000
C      -46.82070000     -30.29530000     -69.56620000
S      -42.81270000     -30.02440000     -70.95570000
S      -45.47130000     -29.11970000     -69.43450000
H      -47.70800000     -30.23260000     -68.95110000
