40
Properties=species:S:1:pos:R:3 #=T CELL(abcABC):=T 1.889726e+02=T 90.00000=T Traj:=T positionsangstrom=T Step:=T 0=T Bead:=T pbc="F F F"
C      -49.22910000     -32.58280000     -72.24440000
C      -48.86310000     -33.49990000     -71.26960000
C      -48.24750000     -33.09150000     -70.09380000
C      -48.04330000     -31.71510000     -69.85030000
C      -48.53470000     -30.77880000     -70.78700000
C      -49.11080000     -31.24700000     -71.96540000
H      -49.67160000     -32.97320000     -73.19220000
H      -47.74100000     -33.81320000     -69.33440000
H      -48.46120000     -29.68180000     -70.66680000
H      -49.36920000     -30.57900000     -72.74230000
C      -47.36010000     -31.17160000     -68.66680000
H      -48.22660000     -31.07600000     -67.90510000
H      -46.85920000     -30.20720000     -68.91620000
C      -48.99610000     -34.96600000     -71.50320000
H      -48.79220000     -35.58050000     -70.66790000
H      -50.00970000     -35.21880000     -71.91290000
S      -46.02280000     -32.20220000     -67.80390000
S      -47.95330000     -35.59060000     -72.88380000
C      -44.71260000     -32.15320000     -69.03860000
H      -44.97420000     -31.44780000     -69.73360000
H      -43.69940000     -31.87290000     -68.58380000
C      -46.14510000     -35.29470000     -72.34150000
H      -45.71880000     -36.00960000     -73.03850000
H      -45.94870000     -35.42980000     -71.27140000
C      -45.64470000     -33.90140000     -72.76450000
H      -46.16370000     -33.60920000     -73.67920000
H      -45.89880000     -33.17740000     -72.01100000
C      -44.45390000     -33.56640000     -69.66950000
H      -45.33990000     -33.87590000     -70.26690000
H      -44.27400000     -34.35540000     -68.83390000
C      -43.19980000     -33.62390000     -70.52370000
C      -41.97770000     -33.59440000     -69.85240000
C      -43.08560000     -33.80690000     -71.95890000
H      -41.80840000     -33.37090000     -68.76810000
C      -41.79540000     -33.78860000     -72.43140000
C      -44.08110000     -33.98090000     -72.98430000
C      -43.47550000     -33.98980000     -74.19510000
S      -40.60190000     -33.66350000     -71.03080000
S      -41.70020000     -33.75950000     -74.15110000
H      -43.89250000     -33.91840000     -75.21180000
