40
Properties=species:S:1:pos:R:3 #=T CELL(abcABC):=T 1.889726e+02=T 90.00000=T Traj:=T positionsangstrom=T Step:=T 0=T Bead:=T pbc="F F F"
C      -46.38770000     -33.48420000     -73.48770000
C      -45.57410000     -34.61330000     -73.63970000
C      -45.70280000     -35.69200000     -72.74830000
C      -46.61970000     -35.66350000     -71.66660000
C      -47.56190000     -34.60110000     -71.66470000
C      -47.45070000     -33.52790000     -72.57320000
H      -46.19340000     -32.63980000     -74.16350000
H      -44.96480000     -36.44720000     -72.74050000
H      -48.32400000     -34.62310000     -70.97220000
H      -48.20990000     -32.76690000     -72.57500000
C      -46.67300000     -36.79580000     -70.64410000
H      -46.25820000     -37.77100000     -71.10940000
H      -47.70620000     -36.95500000     -70.48310000
C      -44.40910000     -34.64690000     -74.59580000
H      -43.77550000     -35.48790000     -74.41370000
H      -44.84170000     -34.64210000     -75.64170000
S      -46.04280000     -36.32260000     -68.90950000
S      -43.19820000     -33.34960000     -74.49380000
C      -44.47210000     -35.51400000     -69.50350000
H      -43.69120000     -36.28460000     -69.37830000
H      -44.63930000     -35.24460000     -70.52670000
C      -42.51440000     -33.66660000     -72.72360000
H      -41.45140000     -33.96680000     -72.80320000
H      -43.00710000     -34.57530000     -72.29830000
C      -42.54500000     -32.54770000     -71.67950000
H      -42.14500000     -33.01860000     -70.73180000
H      -41.74980000     -31.77340000     -71.92530000
C      -44.16650000     -34.15580000     -68.76650000
H      -43.02040000     -33.93090000     -68.92020000
H      -44.22900000     -34.24150000     -67.70830000
C      -45.05620000     -32.97030000     -69.16290000
C      -46.14140000     -32.60600000     -68.39750000
C      -44.82720000     -32.05040000     -70.29200000
H      -46.45540000     -33.09040000     -67.51310000
C      -45.84910000     -31.07910000     -70.35200000
C      -43.91420000     -31.85950000     -71.40670000
C      -44.31920000     -30.83940000     -72.29410000
S      -47.04560000     -31.23850000     -69.10300000
S      -45.79680000     -30.03770000     -71.74250000
H      -43.69660000     -30.56600000     -73.19150000
