40
Properties=species:S:1:pos:R:3 #=T CELL(abcABC):=T 1.889726e+02=T 90.00000=T Traj:=T positionsangstrom=T Step:=T 0=T Bead:=T pbc="F F F"
C      -46.84490000     -34.10950000     -73.00050000
C      -45.92020000     -35.17210000     -72.79890000
C      -45.89260000     -35.79150000     -71.53200000
C      -46.63280000     -35.31920000     -70.43150000
C      -47.47140000     -34.22240000     -70.65230000
C      -47.62850000     -33.65770000     -71.94410000
H      -47.08710000     -33.65730000     -73.97210000
H      -45.21760000     -36.64410000     -71.39210000
H      -47.99670000     -33.80030000     -69.77080000
H      -48.26780000     -32.81680000     -72.03830000
C      -46.44440000     -35.86290000     -69.10800000
H      -46.07450000     -36.90270000     -69.13520000
H      -47.43000000     -36.04540000     -68.66210000
C      -45.00540000     -35.80870000     -73.80000000
H      -44.39220000     -36.59980000     -73.42250000
H      -45.67740000     -36.17910000     -74.60120000
S      -45.61030000     -34.90210000     -67.81840000
S      -43.75180000     -34.60190000     -74.41210000
C      -43.95990000     -34.72560000     -68.84040000
H      -43.15950000     -35.22680000     -68.30550000
H      -43.99340000     -35.27740000     -69.81350000
C      -42.88170000     -34.50680000     -72.84510000
H      -41.94000000     -35.03920000     -72.96940000
H      -43.43180000     -34.96110000     -72.06040000
C      -42.62470000     -32.97460000     -72.48420000
H      -42.01480000     -32.87870000     -71.55700000
H      -42.08810000     -32.47580000     -73.32070000
C      -43.54620000     -33.25540000     -69.19590000
H      -42.72360000     -33.30690000     -69.90630000
H      -43.13950000     -32.83610000     -68.27940000
C      -44.63010000     -32.35410000     -69.73320000
C      -45.66900000     -31.83470000     -68.99620000
C      -44.72550000     -31.92540000     -71.09430000
H      -45.87070000     -32.12910000     -67.97560000
C      -45.80480000     -31.09100000     -71.36720000
C      -43.97310000     -32.20190000     -72.32710000
C      -44.57460000     -31.60320000     -73.39430000
S      -46.68610000     -30.73130000     -69.92470000
S      -46.00900000     -30.67010000     -73.03580000
H      -44.14160000     -31.38990000     -74.40190000
