40
Properties=species:S:1:pos:R:3 #=T CELL(abcABC):=T 1.889726e+02=T 90.00000=T Traj:=T positionsangstrom=T Step:=T 0=T Bead:=T pbc="F F F"
C      -49.47980000     -32.59760000     -72.14600000
C      -48.83260000     -33.51870000     -71.32810000
C      -48.19300000     -33.09790000     -70.15370000
C      -48.07310000     -31.73970000     -69.90780000
C      -48.66020000     -30.77150000     -70.80610000
C      -49.36980000     -31.21400000     -71.94480000
H      -49.95730000     -33.03860000     -73.00080000
H      -47.79330000     -33.86760000     -69.44160000
H      -48.43950000     -29.72910000     -70.47850000
H      -49.80120000     -30.51870000     -72.66830000
C      -47.38610000     -31.17480000     -68.64010000
H      -48.05040000     -30.97380000     -67.87210000
H      -47.10480000     -30.17580000     -68.90780000
C      -48.85750000     -34.98900000     -71.62320000
H      -48.54850000     -35.55090000     -70.74890000
H      -49.86520000     -35.44710000     -71.89450000
S      -46.06040000     -32.12450000     -67.92600000
S      -47.83480000     -35.59270000     -73.05980000
C      -44.65720000     -32.14170000     -69.14700000
H      -45.01790000     -31.68510000     -70.08910000
H      -43.85780000     -31.49090000     -68.80100000
C      -46.16670000     -35.40260000     -72.43410000
H      -45.64080000     -36.22230000     -72.88840000
H      -45.99660000     -35.62270000     -71.36460000
C      -45.63340000     -33.93430000     -72.76290000
H      -46.07620000     -33.42600000     -73.65130000
H      -46.04750000     -33.40640000     -71.91030000
C      -44.31990000     -33.63220000     -69.44120000
H      -45.15420000     -34.14410000     -69.85120000
H      -44.04440000     -34.08650000     -68.51450000
C      -43.11010000     -33.58080000     -70.32790000
C      -41.79820000     -33.60490000     -69.89980000
C      -43.14910000     -33.76070000     -71.78640000
H      -41.55280000     -33.55700000     -68.85460000
C      -41.86970000     -33.76420000     -72.33470000
C      -44.13090000     -33.82810000     -72.87690000
C      -43.48280000     -33.94770000     -74.06080000
S      -40.55580000     -33.59470000     -71.10270000
S      -41.74360000     -33.90080000     -74.00060000
H      -44.01000000     -33.96680000     -74.99960000
