40
Properties=species:S:1:pos:R:3 #=T CELL(abcABC):=T 1.889726e+02=T 90.00000=T Traj:=T positionsangstrom=T Step:=T 0=T Bead:=T pbc="F F F"
C      -47.19730000     -34.78350000     -72.85520000
C      -46.17360000     -35.67030000     -72.55000000
C      -45.96800000     -36.00920000     -71.13620000
C      -46.55490000     -35.33830000     -70.06580000
C      -47.47310000     -34.34590000     -70.48640000
C      -47.86290000     -34.09340000     -71.79850000
H      -47.29320000     -34.62250000     -73.95560000
H      -45.05860000     -36.67150000     -70.87330000
H      -48.03340000     -33.67950000     -69.77030000
H      -48.54930000     -33.25040000     -72.00940000
C      -46.34460000     -35.41030000     -68.59620000
H      -46.18340000     -36.50120000     -68.42300000
H      -47.35600000     -35.23710000     -68.04850000
C      -45.28670000     -36.31870000     -73.60100000
H      -44.75330000     -37.24060000     -73.21660000
H      -45.86120000     -36.53880000     -74.53820000
S      -45.19750000     -34.28010000     -67.87280000
S      -44.05690000     -35.01840000     -74.19360000
C      -43.67060000     -34.21640000     -68.96890000
H      -42.87460000     -34.76000000     -68.51710000
H      -43.91890000     -34.77650000     -69.93910000
C      -43.19700000     -34.65720000     -72.59640000
H      -42.31380000     -35.24610000     -72.46700000
H      -43.88720000     -34.87280000     -71.81680000
C      -42.76600000     -33.23260000     -72.63240000
H      -42.10640000     -33.03900000     -71.80530000
H      -42.20010000     -33.07300000     -73.56750000
C      -43.32510000     -32.71960000     -69.16770000
H      -42.45250000     -32.64920000     -69.78530000
H      -43.04580000     -32.27610000     -68.23180000
C      -44.39870000     -31.97850000     -69.86140000
C      -45.35510000     -31.26120000     -69.18280000
C      -44.60940000     -31.93140000     -71.28480000
H      -45.41660000     -31.16850000     -68.12670000
C      -45.73630000     -31.12630000     -71.62810000
C      -43.95790000     -32.32040000     -72.55360000
C      -44.64120000     -31.81580000     -73.63490000
S      -46.55500000     -30.40810000     -70.22590000
S      -46.10940000     -30.91670000     -73.31200000
H      -44.30900000     -31.85690000     -74.60420000
