40
Properties=species:S:1:pos:R:3 #=T CELL(abcABC):=T 1.889726e+02=T 90.00000=T Traj:=T positionsangstrom=T Step:=T 0=T Bead:=T pbc="F F F"
C      -47.29260000     -34.87910000     -71.98930000
C      -46.20120000     -35.59420000     -71.58900000
C      -45.83410000     -35.52280000     -70.25500000
C      -46.51050000     -34.76610000     -69.28510000
C      -47.60020000     -34.01160000     -69.69870000
C      -47.94560000     -34.04900000     -71.07730000
H      -47.55280000     -34.78430000     -73.12000000
H      -44.96860000     -36.04370000     -69.94740000
H      -48.11040000     -33.23730000     -69.15700000
H      -48.72520000     -33.34270000     -71.43160000
C      -45.99780000     -34.64370000     -67.84150000
H      -45.45460000     -35.56380000     -67.61340000
H      -46.90890000     -34.43000000     -67.21920000
C      -45.44700000     -36.53890000     -72.55940000
H      -44.99420000     -37.36430000     -72.01770000
H      -46.20490000     -36.86590000     -73.22820000
S      -44.80650000     -33.21290000     -67.72120000
S      -44.12070000     -35.79410000     -73.71870000
C      -43.57230000     -33.54670000     -69.07970000
H      -42.68850000     -34.00510000     -68.59770000
H      -43.95290000     -34.19640000     -69.82350000
C      -42.99610000     -34.97840000     -72.48550000
H      -42.06620000     -35.52830000     -72.53810000
H      -43.44060000     -35.16620000     -71.48580000
C      -42.77460000     -33.53470000     -72.92530000
H      -41.95610000     -33.10520000     -72.42710000
H      -42.40840000     -33.58320000     -73.98170000
C      -43.22680000     -32.21150000     -69.73750000
H      -42.34950000     -32.26750000     -70.34790000
H      -42.91940000     -31.48230000     -68.92140000
C      -44.38500000     -31.68000000     -70.58240000
C      -45.28810000     -30.84070000     -69.99570000
C      -44.68060000     -31.97830000     -71.94880000
H      -45.10450000     -30.47730000     -69.03840000
C      -45.90650000     -31.43770000     -72.35730000
C      -44.04670000     -32.65490000     -73.00870000
C      -44.82070000     -32.59030000     -74.13850000
S      -46.72820000     -30.54740000     -71.02930000
S      -46.29940000     -31.82080000     -74.02210000
H      -44.56920000     -33.19270000     -74.95650000
