40
Properties=species:S:1:pos:R:3 #=T CELL(abcABC):=T 1.889726e+02=T 90.00000=T Traj:=T positionsangstrom=T Step:=T 0=T Bead:=T pbc="F F F"
C      -46.89490000     -34.80390000     -72.15730000
C      -46.08980000     -35.91590000     -71.78660000
C      -45.86240000     -36.07270000     -70.36640000
C      -46.35220000     -35.13520000     -69.46530000
C      -47.22900000     -34.08440000     -69.87580000
C      -47.48120000     -33.93570000     -71.23460000
H      -47.05210000     -34.47700000     -73.17350000
H      -45.26650000     -36.95440000     -69.92870000
H      -47.56180000     -33.40300000     -69.01530000
H      -48.14620000     -33.15150000     -71.61620000
C      -45.82410000     -35.17780000     -68.04420000
H      -45.10110000     -36.01800000     -67.90110000
H      -46.40470000     -35.33970000     -67.13400000
C      -45.40950000     -36.72710000     -72.89670000
H      -44.76090000     -37.56810000     -72.64490000
H      -46.12510000     -37.15700000     -73.63860000
S      -44.87850000     -33.68240000     -67.68620000
S      -44.35370000     -35.56950000     -73.88940000
C      -43.60680000     -33.66750000     -69.06000000
H      -42.68960000     -33.94500000     -68.53850000
H      -43.73030000     -34.38900000     -69.84010000
C      -43.20810000     -34.84690000     -72.67800000
H      -42.25330000     -35.44950000     -72.69890000
H      -43.63030000     -35.09380000     -71.73710000
C      -42.90670000     -33.32370000     -72.92180000
H      -42.19740000     -32.84770000     -72.21370000
H      -42.42060000     -33.25580000     -73.89460000
C      -43.39960000     -32.26600000     -69.51040000
H      -42.43590000     -32.25030000     -70.05040000
H      -43.22020000     -31.65490000     -68.65140000
C      -44.50740000     -31.67380000     -70.34700000
C      -45.47660000     -30.83690000     -69.72030000
C      -44.74410000     -31.83030000     -71.79330000
H      -45.57650000     -30.64820000     -68.68200000
C      -45.92450000     -31.18750000     -72.17260000
C      -44.14930000     -32.49620000     -72.90500000
C      -44.79400000     -32.30670000     -74.10030000
S      -46.75270000     -30.50460000     -70.82730000
S      -46.25550000     -31.25450000     -73.89200000
H      -44.65200000     -32.73700000     -75.01320000
