40
Properties=species:S:1:pos:R:3 #=T CELL(abcABC):=T 1.889726e+02=T 90.00000=T Traj:=T positionsangstrom=T Step:=T 0=T Bead:=T pbc="F F F"
C      -47.17960000     -34.90900000     -72.48480000
C      -46.09860000     -35.79060000     -72.17420000
C      -45.74830000     -35.92370000     -70.84570000
C      -46.42260000     -35.24690000     -69.83460000
C      -47.51260000     -34.39120000     -70.13510000
C      -47.95330000     -34.28190000     -71.47080000
H      -47.28650000     -34.86600000     -73.55930000
H      -44.87170000     -36.47850000     -70.50860000
H      -48.07960000     -33.77830000     -69.41960000
H      -48.80950000     -33.67940000     -71.83220000
C      -46.05240000     -35.46260000     -68.43250000
H      -45.31770000     -36.37090000     -68.33550000
H      -46.91260000     -35.55680000     -67.77790000
C      -45.40160000     -36.51500000     -73.37280000
H      -45.00350000     -37.53590000     -73.05510000
H      -46.06220000     -36.63650000     -74.24430000
S      -45.04900000     -33.96650000     -67.80190000
S      -43.90530000     -35.61120000     -74.16060000
C      -43.64550000     -33.97110000     -69.00410000
H      -42.79050000     -34.42180000     -68.37860000
H      -43.73920000     -34.62930000     -69.83560000
C      -43.13690000     -34.71960000     -72.69140000
H      -42.23250000     -35.24970000     -72.44440000
H      -43.73140000     -34.90490000     -71.80510000
C      -42.86430000     -33.18360000     -72.78160000
H      -42.16720000     -32.97700000     -71.95510000
H      -42.34820000     -32.89370000     -73.70730000
C      -43.41540000     -32.50470000     -69.34500000
H      -42.46460000     -32.33100000     -69.85550000
H      -43.33020000     -32.12430000     -68.31570000
C      -44.56430000     -31.82580000     -70.04010000
C      -45.41760000     -30.93930000     -69.44070000
C      -44.75890000     -31.79690000     -71.48690000
H      -45.41420000     -30.76310000     -68.38250000
C      -45.90160000     -31.04950000     -71.82020000
C      -44.10280000     -32.34070000     -72.71540000
C      -44.86380000     -32.04670000     -73.82760000
S      -46.62340000     -30.21620000     -70.40990000
S      -46.16000000     -30.94840000     -73.53760000
H      -44.59330000     -32.41460000     -74.86550000
