40
Properties=species:S:1:pos:R:3 #=T CELL(abcABC):=T 1.889726e+02=T 90.00000=T Traj:=T positionsangstrom=T Step:=T 0=T Bead:=T pbc="F F F"
C      -47.02430000     -34.82440000     -72.38560000
C      -46.03050000     -35.77640000     -72.07950000
C      -45.69800000     -35.92990000     -70.72600000
C      -46.47500000     -35.33020000     -69.70100000
C      -47.60800000     -34.52650000     -70.02050000
C      -47.86540000     -34.25720000     -71.34750000
H      -47.31790000     -34.63230000     -73.44370000
H      -44.90230000     -36.59740000     -70.54450000
H      -48.20540000     -34.24510000     -69.21260000
H      -48.57690000     -33.46450000     -71.60800000
C      -46.02370000     -35.38230000     -68.27010000
H      -45.55900000     -36.32150000     -68.01760000
H      -46.98780000     -35.37180000     -67.73230000
C      -45.25100000     -36.56180000     -73.14300000
H      -44.82320000     -37.46880000     -72.74220000
H      -45.97290000     -36.84260000     -73.87090000
S      -45.05070000     -33.96470000     -67.69870000
S      -43.98980000     -35.46320000     -73.99600000
C      -43.70690000     -33.89050000     -68.95530000
H      -42.80680000     -34.28180000     -68.55630000
H      -44.08240000     -34.51820000     -69.76280000
C      -42.96130000     -34.78100000     -72.61160000
H      -41.92340000     -35.08390000     -72.71680000
H      -43.38280000     -35.01050000     -71.53940000
C      -42.90460000     -33.27060000     -72.79280000
H      -42.26280000     -32.93760000     -71.97510000
H      -42.38990000     -33.04260000     -73.69030000
C      -43.40640000     -32.44420000     -69.46620000
H      -42.53340000     -32.51000000     -70.07420000
H      -43.16790000     -31.76680000     -68.62690000
C      -44.53700000     -31.74940000     -70.26910000
C      -45.34020000     -30.86340000     -69.56020000
C      -44.80350000     -31.85920000     -71.66230000
H      -45.18630000     -30.60800000     -68.47360000
C      -45.88120000     -31.07960000     -71.97010000
C      -44.24100000     -32.49930000     -72.80480000
C      -44.96030000     -32.26550000     -73.94620000
S      -46.56060000     -30.15600000     -70.65830000
S      -46.26410000     -31.01910000     -73.65190000
H      -44.85420000     -32.66000000     -74.95310000
