40
Properties=species:S:1:pos:R:3 #=T CELL(abcABC):=T 1.889726e+02=T 90.00000=T Traj:=T positionsangstrom=T Step:=T 0=T Bead:=T pbc="F F F"
C      -48.44480000     -32.55380000     -72.57860000
C      -48.62220000     -33.47740000     -71.54010000
C      -48.42300000     -33.04550000     -70.21740000
C      -47.98410000     -31.79020000     -69.91310000
C      -47.96680000     -30.83190000     -70.96420000
C      -48.22680000     -31.20920000     -72.25770000
H      -48.54530000     -32.89100000     -73.65020000
H      -48.62620000     -33.78200000     -69.50100000
H      -47.62760000     -29.80530000     -70.73880000
H      -48.17420000     -30.48610000     -73.08890000
C      -47.60370000     -31.45380000     -68.49180000
H      -48.48230000     -31.47200000     -67.81340000
H      -47.27150000     -30.45190000     -68.40350000
C      -48.99420000     -34.99100000     -71.78460000
H      -49.02750000     -35.59240000     -70.86960000
H      -49.96610000     -35.15290000     -72.24990000
S      -46.50320000     -32.80560000     -67.68990000
S      -47.83350000     -35.95610000     -72.81530000
C      -44.90510000     -32.49710000     -68.54960000
H      -44.65030000     -31.49210000     -68.35150000
H      -44.14430000     -33.01630000     -67.96800000
C      -46.14040000     -35.68960000     -72.06060000
H      -45.58120000     -36.67420000     -72.01860000
H      -46.29700000     -35.38410000     -71.02390000
C      -45.49350000     -34.64350000     -73.04060000
H      -45.54080000     -35.04350000     -74.08110000
H      -46.10590000     -33.75920000     -73.29810000
C      -44.88160000     -32.89940000     -70.04280000
H      -45.60290000     -32.29040000     -70.58650000
H      -45.23640000     -33.96590000     -70.19810000
C      -43.51210000     -32.85790000     -70.68720000
C      -42.42130000     -32.23110000     -70.11980000
C      -43.19450000     -33.53570000     -71.93680000
H      -42.44950000     -31.72120000     -69.17570000
C      -41.86800000     -33.44890000     -72.24410000
C      -43.93080000     -34.26740000     -72.95420000
C      -43.16380000     -34.63810000     -74.03660000
S      -40.93270000     -32.52910000     -71.02580000
S      -41.45150000     -34.12290000     -73.82210000
H      -43.49470000     -35.15730000     -74.90580000
