40
Properties=species:S:1:pos:R:3 #=T CELL(abcABC):=T 1.889726e+02=T 90.00000=T Traj:=T positionsangstrom=T Step:=T 0=T Bead:=T pbc="F F F"
C      -48.39830000     -32.95790000     -72.66240000
C      -48.49650000     -33.84070000     -71.59010000
C      -48.21910000     -33.44800000     -70.29940000
C      -47.86250000     -32.08520000     -69.93040000
C      -47.64590000     -31.21450000     -71.02400000
C      -47.92720000     -31.67300000     -72.32460000
H      -48.74070000     -33.22430000     -73.63580000
H      -48.34380000     -34.04370000     -69.46180000
H      -47.35030000     -30.24400000     -70.72780000
H      -47.94190000     -30.92340000     -73.09660000
C      -47.82770000     -31.57730000     -68.50910000
H      -48.76470000     -31.73660000     -68.02720000
H      -47.66620000     -30.58550000     -68.33170000
C      -48.78210000     -35.28120000     -71.92850000
H      -48.83660000     -36.00340000     -71.05180000
H      -49.74590000     -35.33060000     -72.48230000
S      -46.59390000     -32.54080000     -67.48650000
S      -47.58300000     -36.08100000     -73.04950000
C      -45.01410000     -32.30440000     -68.46930000
H      -44.85400000     -31.21370000     -68.61140000
H      -44.22740000     -32.55980000     -67.74160000
C      -45.96450000     -35.59090000     -72.29860000
H      -45.28500000     -36.46640000     -72.31700000
H      -46.01400000     -35.34140000     -71.26780000
C      -45.41450000     -34.44350000     -73.10860000
H      -45.78420000     -34.61360000     -74.06540000
H      -46.04760000     -33.52990000     -72.86620000
C      -44.93550000     -33.08920000     -69.78410000
H      -45.69870000     -32.73090000     -70.47840000
H      -45.20660000     -34.16180000     -69.59660000
C      -43.56100000     -33.16100000     -70.46600000
C      -42.53360000     -32.49770000     -69.85510000
C      -43.31030000     -33.49360000     -71.86330000
H      -42.44090000     -32.11610000     -68.82390000
C      -41.99370000     -33.09590000     -72.23870000
C      -44.00890000     -34.07250000     -73.02020000
C      -43.24020000     -34.24670000     -74.13180000
S      -41.11270000     -32.42860000     -70.90940000
S      -41.68400000     -33.56890000     -73.88330000
H      -43.47450000     -34.61690000     -75.11470000
