40
Properties=species:S:1:pos:R:3 #=T CELL(abcABC):=T 1.889726e+02=T 90.00000=T Traj:=T positionsangstrom=T Step:=T 0=T Bead:=T pbc="F F F"
C      -46.41240000     -32.30830000     -67.63410000
C      -46.29130000     -31.45390000     -68.76920000
C      -45.01820000     -31.15180000     -69.22180000
C      -43.86950000     -31.62320000     -68.54010000
C      -44.07680000     -32.63890000     -67.56100000
C      -45.32360000     -32.94470000     -67.09490000
H      -47.43300000     -32.45800000     -67.24950000
H      -44.98890000     -30.63930000     -70.17500000
H      -43.30940000     -33.09730000     -66.96580000
H      -45.54150000     -33.57180000     -66.20020000
C      -42.44060000     -31.38250000     -69.01890000
H      -41.70720000     -32.17260000     -68.74160000
H      -42.17700000     -30.39140000     -68.57030000
C      -47.54570000     -30.76470000     -69.40780000
H      -48.20690000     -30.46980000     -68.59320000
H      -47.31420000     -29.78580000     -69.96450000
S      -42.37930000     -31.18210000     -70.83890000
S      -48.56890000     -31.68430000     -70.65400000
C      -43.08090000     -32.81210000     -71.41890000
H      -42.20450000     -33.34450000     -71.72310000
H      -43.49950000     -33.32790000     -70.62400000
C      -47.61390000     -32.68440000     -71.80090000
H      -46.97640000     -32.02940000     -72.45310000
H      -48.32290000     -33.02720000     -72.51000000
C      -46.72700000     -33.78980000     -71.06740000
H      -45.83490000     -33.23070000     -70.72140000
H      -47.32420000     -34.14260000     -70.21870000
C      -44.13990000     -32.60430000     -72.50540000
H      -43.75890000     -31.85880000     -73.18500000
H      -45.00200000     -32.16850000     -72.00250000
C      -44.29760000     -33.85150000     -73.26890000
C      -43.50950000     -34.34230000     -74.23910000
C      -45.37110000     -34.81910000     -72.99850000
H      -42.75570000     -33.87300000     -74.91110000
C      -45.35530000     -35.96230000     -73.82760000
C      -46.39200000     -34.88540000     -71.99320000
C      -47.21380000     -35.97440000     -72.14720000
S      -43.99450000     -35.92070000     -74.92410000
S      -46.64180000     -37.03680000     -73.38800000
H      -47.97090000     -36.30370000     -71.42510000
