40
Properties=species:S:1:pos:R:3 #=T CELL(abcABC):=T 1.889726e+02=T 90.00000=T Traj:=T positionsangstrom=T Step:=T 0=T Bead:=T pbc="F F F"
C      -46.37330000     -31.85690000     -68.28270000
C      -45.67820000     -30.91750000     -69.07040000
C      -44.27070000     -31.02190000     -69.14610000
C      -43.61740000     -32.09420000     -68.53480000
C      -44.32190000     -32.86550000     -67.54300000
C      -45.71420000     -32.73720000     -67.40730000
H      -47.43240000     -31.87710000     -68.28770000
H      -43.76510000     -30.18640000     -69.63690000
H      -43.80080000     -33.64340000     -66.90400000
H      -46.30020000     -33.38520000     -66.78080000
C      -42.15200000     -32.12210000     -68.81490000
H      -41.70820000     -32.88790000     -68.20390000
H      -41.80250000     -31.13020000     -68.56560000
C      -46.41330000     -29.91010000     -69.83730000
H      -46.93850000     -29.17960000     -69.23240000
H      -45.71020000     -29.47190000     -70.51680000
S      -41.80540000     -32.35380000     -70.70550000
S      -47.81920000     -30.70100000     -70.76240000
C      -42.80950000     -33.71790000     -71.29290000
H      -42.11390000     -34.48330000     -71.63810000
H      -43.31060000     -34.23470000     -70.48510000
C      -47.15120000     -31.96790000     -71.87450000
H      -46.24520000     -31.48890000     -72.41580000
H      -47.85650000     -31.99230000     -72.68410000
C      -46.87660000     -33.23340000     -71.10710000
H      -45.98200000     -33.21520000     -70.50500000
H      -47.66280000     -33.47840000     -70.41660000
C      -43.78650000     -33.22540000     -72.34470000
H      -43.24470000     -32.64530000     -73.14710000
H      -44.39040000     -32.48320000     -71.87180000
C      -44.45360000     -34.34650000     -73.07730000
C      -43.67520000     -35.16910000     -73.83580000
C      -45.79430000     -34.78080000     -72.89450000
H      -42.68140000     -34.98790000     -74.24920000
C      -46.04140000     -35.90220000     -73.61800000
C      -46.87350000     -34.38710000     -72.08040000
C      -47.97090000     -35.21350000     -72.33230000
S      -44.71530000     -36.44190000     -74.63230000
S      -47.65080000     -36.52380000     -73.45390000
H      -48.86810000     -35.12110000     -71.78250000
