40
Properties=species:S:1:pos:R:3 #=T CELL(abcABC):=T 1.889726e+02=T 90.00000=T Traj:=T positionsangstrom=T Step:=T 0=T Bead:=T pbc="F F F"
C      -46.59320000     -32.27350000     -67.73390000
C      -46.36380000     -31.40520000     -68.85030000
C      -45.01460000     -31.29290000     -69.22960000
C      -43.92610000     -31.89800000     -68.60430000
C      -44.24710000     -32.77450000     -67.48150000
C      -45.53670000     -32.95030000     -67.13770000
H      -47.61590000     -32.46310000     -67.33550000
H      -44.88700000     -30.45120000     -69.94810000
H      -43.42670000     -33.35850000     -67.04630000
H      -45.84650000     -33.74100000     -66.43510000
C      -42.51480000     -31.61500000     -69.00870000
H      -41.93300000     -32.41500000     -68.67480000
H      -42.23340000     -30.69340000     -68.42530000
C      -47.35510000     -30.55300000     -69.48930000
H      -47.82200000     -29.96230000     -68.75130000
H      -46.79630000     -29.83530000     -70.11430000
S      -42.18320000     -31.20700000     -70.79530000
S      -48.59750000     -31.53740000     -70.47320000
C      -42.77920000     -32.80240000     -71.52880000
H      -41.88340000     -33.39910000     -71.70260000
H      -43.39850000     -33.35730000     -70.70000000
C      -47.37230000     -32.47630000     -71.56250000
H      -46.62380000     -31.81690000     -71.97940000
H      -47.94830000     -32.90520000     -72.40260000
C      -46.68840000     -33.72810000     -70.86180000
H      -45.80890000     -33.44690000     -70.29670000
H      -47.31320000     -34.33900000     -70.15930000
C      -43.70580000     -32.63500000     -72.78440000
H      -43.26330000     -32.11350000     -73.68040000
H      -44.55480000     -32.09540000     -72.36600000
C      -44.21990000     -33.94120000     -73.40030000
C      -43.53300000     -34.50780000     -74.43320000
C      -45.31120000     -34.80010000     -72.88040000
H      -42.47450000     -34.31170000     -74.83560000
C      -45.45160000     -35.86660000     -73.76660000
C      -46.42890000     -34.73580000     -72.03720000
C      -47.30020000     -35.81230000     -72.12250000
S      -44.22350000     -36.10110000     -74.97540000
S      -46.77860000     -36.92170000     -73.40660000
H      -48.21020000     -36.10840000     -71.55220000
