40
Properties=species:S:1:pos:R:3 #=T CELL(abcABC):=T 1.889726e+02=T 90.00000=T Traj:=T positionsangstrom=T Step:=T 0=T Bead:=T pbc="F F F"
C      -46.62660000     -32.17420000     -67.85670000
C      -46.22540000     -31.10690000     -68.76110000
C      -44.87090000     -30.90550000     -68.94360000
C      -43.97680000     -31.94540000     -68.56050000
C      -44.39940000     -32.98200000     -67.68550000
C      -45.72180000     -33.02740000     -67.30570000
H      -47.65560000     -32.19530000     -67.61070000
H      -44.49630000     -30.28330000     -69.69180000
H      -43.64500000     -33.66450000     -67.31670000
H      -46.08460000     -33.65500000     -66.55760000
C      -42.52690000     -31.92390000     -69.00130000
H      -42.14790000     -33.01540000     -68.83970000
H      -41.80940000     -31.34160000     -68.39470000
C      -47.40610000     -30.34600000     -69.45090000
H      -48.10500000     -29.94390000     -68.66330000
H      -47.18830000     -29.47480000     -70.06050000
S      -42.24220000     -31.42450000     -70.73030000
S      -48.46730000     -31.57060000     -70.27490000
C      -42.55530000     -33.01000000     -71.70500000
H      -41.62150000     -33.20620000     -72.24430000
H      -42.81630000     -33.85040000     -71.17830000
C      -47.36200000     -32.27380000     -71.57140000
H      -46.58600000     -31.52900000     -71.88710000
H      -48.05290000     -32.45640000     -72.38680000
C      -46.54850000     -33.50510000     -71.07210000
H      -45.60180000     -33.06720000     -70.65700000
H      -47.12110000     -33.92330000     -70.23030000
C      -43.68340000     -32.75310000     -72.75880000
H      -43.35690000     -32.09220000     -73.52410000
H      -44.50430000     -32.12540000     -72.39260000
C      -44.10950000     -34.04670000     -73.41250000
C      -43.49320000     -34.66460000     -74.47470000
C      -45.32950000     -34.78140000     -73.01800000
H      -42.55690000     -34.38230000     -74.92060000
C      -45.49550000     -35.96550000     -73.80130000
C      -46.37460000     -34.65670000     -72.02900000
C      -47.24600000     -35.72480000     -71.98950000
S      -44.30120000     -36.06630000     -75.08330000
S      -46.93350000     -36.83690000     -73.32790000
H      -48.21160000     -35.71400000     -71.52190000
