40
Properties=species:S:1:pos:R:3 #=T CELL(abcABC):=T 1.889726e+02=T 90.00000=T Traj:=T positionsangstrom=T Step:=T 0=T Bead:=T pbc="F F F"
C      -48.70080000     -33.73320000     -72.12220000
C      -48.35150000     -34.69730000     -71.17940000
C      -48.08660000     -34.25810000     -69.85940000
C      -48.13040000     -32.86930000     -69.65940000
C      -48.40330000     -31.92070000     -70.62860000
C      -48.77780000     -32.38770000     -71.87610000
H      -49.05490000     -34.13950000     -73.17280000
H      -47.66700000     -34.83000000     -69.12680000
H      -48.29350000     -30.79260000     -70.51460000
H      -49.16170000     -31.63580000     -72.61020000
C      -47.91580000     -32.37020000     -68.29110000
H      -48.64690000     -32.72430000     -67.50780000
H      -47.92910000     -31.23380000     -68.23310000
C      -48.23580000     -36.13550000     -71.56500000
H      -48.09030000     -36.64920000     -70.61230000
H      -49.19790000     -36.40210000     -71.89840000
S      -46.30990000     -33.02980000     -67.54000000
S      -46.96170000     -36.51580000     -72.79290000
C      -44.91120000     -32.40950000     -68.52680000
H      -44.98380000     -31.39590000     -68.66030000
H      -44.03060000     -32.49840000     -67.82910000
C      -45.55660000     -35.54750000     -72.17370000
H      -44.72240000     -36.18740000     -72.40160000
H      -45.53210000     -35.49480000     -71.03590000
C      -45.54920000     -34.13660000     -72.89840000
H      -46.19890000     -34.34930000     -73.77760000
H      -46.18240000     -33.52870000     -72.30090000
C      -44.55220000     -33.22150000     -69.81430000
H      -45.45740000     -33.36300000     -70.35880000
H      -44.26740000     -34.18090000     -69.38610000
C      -43.50390000     -32.57760000     -70.63640000
C      -42.51110000     -31.70080000     -70.20020000
C      -43.32450000     -32.84400000     -72.05820000
H      -42.32990000     -31.47070000     -69.18830000
C      -42.17590000     -32.34910000     -72.65440000
C      -44.16010000     -33.50220000     -73.10720000
C      -43.46030000     -33.64530000     -74.34130000
S      -41.30900000     -31.37600000     -71.43750000
S      -41.97610000     -32.69160000     -74.39570000
H      -43.97750000     -33.96340000     -75.22640000
