40
Properties=species:S:1:pos:R:3 #=T CELL(abcABC):=T 1.889726e+02=T 90.00000=T Traj:=T positionsangstrom=T Step:=T 0=T Bead:=T pbc="F F F"
C      -42.57240000     -36.05350000     -69.54320000
C      -42.93440000     -34.67880000     -69.37060000
C      -42.62610000     -33.72430000     -70.31000000
C      -41.90790000     -34.06620000     -71.48160000
C      -41.59540000     -35.45980000     -71.70430000
C      -41.92290000     -36.40070000     -70.73430000
H      -42.64540000     -36.73930000     -68.75000000
H      -42.84520000     -32.64600000     -70.15390000
H      -41.08620000     -35.65510000     -72.65560000
H      -41.61490000     -37.43260000     -70.90320000
C      -41.41370000     -33.05620000     -72.47280000
H      -41.47710000     -33.47890000     -73.48160000
H      -40.35240000     -32.84590000     -72.35560000
C      -43.62190000     -34.28540000     -68.07100000
H      -43.05990000     -34.68070000     -67.23770000
H      -43.64010000     -33.25520000     -68.00400000
S      -42.33730000     -31.51140000     -72.43760000
S      -45.38220000     -34.86820000     -67.71470000
C      -44.16310000     -32.05490000     -72.75670000
H      -44.36530000     -31.69510000     -73.72690000
H      -44.21820000     -33.18460000     -72.63090000
C      -46.37350000     -34.22070000     -69.12350000
H      -46.17820000     -33.13900000     -69.09370000
H      -47.39130000     -34.50530000     -68.91390000
C      -46.03260000     -34.58060000     -70.55220000
H      -45.03010000     -34.23110000     -70.96480000
H      -46.02960000     -35.67990000     -70.69230000
C      -45.05000000     -31.41560000     -71.71380000
H      -44.74570000     -30.40170000     -71.62120000
H      -44.94520000     -31.85390000     -70.78600000
C      -46.49690000     -31.47440000     -72.07950000
C      -47.12670000     -30.43160000     -72.77980000
C      -47.27610000     -32.69270000     -71.96880000
H      -46.78210000     -29.42100000     -72.72780000
C      -48.51790000     -32.55550000     -72.69010000
C      -47.14040000     -34.04210000     -71.46390000
C      -48.14630000     -34.87340000     -71.92940000
S      -48.79340000     -30.93640000     -73.20340000
S      -49.34370000     -34.07920000     -73.04230000
H      -48.33040000     -35.91380000     -71.85130000
