40
Properties=species:S:1:pos:R:3 #=T CELL(abcABC):=T 1.889726e+02=T 90.00000=T Traj:=T positionsangstrom=T Step:=T 0=T Bead:=T pbc="F F F"
C      -46.38270000     -32.18970000     -67.88510000
C      -45.97450000     -31.26530000     -68.80300000
C      -44.56740000     -31.15360000     -69.08350000
C      -43.73960000     -32.02320000     -68.41370000
C      -44.15230000     -33.02320000     -67.53520000
C      -45.52140000     -33.07450000     -67.21430000
H      -47.43150000     -32.16480000     -67.56910000
H      -44.10290000     -30.32700000     -69.69790000
H      -43.46070000     -33.70070000     -67.15170000
H      -45.98400000     -33.83960000     -66.51340000
C      -42.19260000     -31.93360000     -68.87060000
H      -41.64820000     -32.76720000     -68.46970000
H      -41.74520000     -30.95770000     -68.50420000
C      -46.98940000     -30.29400000     -69.43830000
H      -47.56360000     -29.99730000     -68.57180000
H      -46.41700000     -29.44370000     -69.93360000
S      -42.06240000     -31.85980000     -70.73200000
S      -48.21840000     -31.00960000     -70.57000000
C      -42.95010000     -33.35200000     -71.47890000
H      -42.28680000     -34.18170000     -71.63310000
H      -43.67660000     -33.66140000     -70.69280000
C      -47.22050000     -31.88490000     -71.79480000
H      -46.46590000     -31.17880000     -72.23770000
H      -47.85690000     -32.14190000     -72.70270000
C      -46.71800000     -33.22200000     -71.19710000
H      -45.77390000     -33.03150000     -70.77780000
H      -47.38690000     -33.40850000     -70.42710000
C      -43.55540000     -32.91340000     -72.83140000
H      -42.67480000     -32.39090000     -73.34120000
H      -44.29180000     -32.15440000     -72.67540000
C      -44.21060000     -34.11970000     -73.52950000
C      -43.61990000     -34.97530000     -74.39790000
C      -45.53220000     -34.68560000     -73.09900000
H      -42.57200000     -34.87620000     -74.64390000
C      -45.84210000     -35.86450000     -73.75120000
C      -46.62630000     -34.35670000     -72.16850000
C      -47.64120000     -35.27500000     -72.17380000
S      -44.58970000     -36.40410000     -74.88490000
S      -47.31570000     -36.70860000     -73.15450000
H      -48.66150000     -35.25870000     -71.73380000
