40
Properties=species:S:1:pos:R:3 #=T CELL(abcABC):=T 1.889726e+02=T 90.00000=T Traj:=T positionsangstrom=T Step:=T 0=T Bead:=T pbc="F F F"
C      -46.44080000     -32.13390000     -67.90300000
C      -45.94870000     -31.16120000     -68.83190000
C      -44.58810000     -31.13170000     -69.15670000
C      -43.70790000     -32.05300000     -68.55360000
C      -44.16680000     -32.88000000     -67.56220000
C      -45.52860000     -33.00220000     -67.27260000
H      -47.55190000     -32.21580000     -67.68200000
H      -44.18980000     -30.41710000     -69.89370000
H      -43.48150000     -33.51330000     -67.06650000
H      -45.79220000     -33.78960000     -66.53530000
C      -42.31060000     -32.10180000     -68.89280000
H      -41.83090000     -33.03640000     -68.53020000
H      -41.69830000     -31.31490000     -68.54230000
C      -46.80860000     -30.15350000     -69.46390000
H      -47.33800000     -29.57650000     -68.71210000
H      -46.17140000     -29.45710000     -69.99630000
S      -41.88930000     -32.10450000     -70.78510000
S      -48.10690000     -30.73230000     -70.67140000
C      -42.88490000     -33.48140000     -71.36320000
H      -42.42370000     -34.40300000     -71.64920000
H      -43.58300000     -33.72870000     -70.52890000
C      -47.19570000     -31.84880000     -71.83340000
H      -46.31460000     -31.34240000     -72.11070000
H      -47.91240000     -31.88630000     -72.70410000
C      -46.84480000     -33.17450000     -71.20980000
H      -45.82290000     -33.17870000     -70.74520000
H      -47.60490000     -33.48120000     -70.40780000
C      -43.68420000     -33.01010000     -72.61960000
H      -42.92890000     -32.53650000     -73.28010000
H      -44.55970000     -32.41390000     -72.37400000
C      -44.35900000     -34.16710000     -73.33730000
C      -43.59370000     -34.98680000     -74.13840000
C      -45.65620000     -34.72970000     -73.02580000
H      -42.53720000     -34.69520000     -74.43610000
C      -45.89120000     -35.93050000     -73.75370000
C      -46.73760000     -34.41880000     -72.08390000
C      -47.73510000     -35.38930000     -72.14250000
S      -44.49580000     -36.39750000     -74.76910000
S      -47.43700000     -36.66730000     -73.32270000
H      -48.73840000     -35.28700000     -71.70670000
