40
Properties=species:S:1:pos:R:3 #=T CELL(abcABC):=T 1.889726e+02=T 90.00000=T Traj:=T positionsangstrom=T Step:=T 0=T Bead:=T pbc="F F F"
C      -45.47400000     -36.12520000     -71.01160000
C      -44.89140000     -35.48580000     -69.87870000
C      -45.57520000     -34.56860000     -69.13470000
C      -46.90890000     -34.20870000     -69.47050000
C      -47.47040000     -34.79910000     -70.60970000
C      -46.75810000     -35.74020000     -71.39500000
H      -44.94150000     -36.77210000     -71.68750000
H      -45.05750000     -34.02010000     -68.37510000
H      -48.54330000     -34.48930000     -70.85650000
H      -47.20270000     -36.18050000     -72.22710000
C      -47.82530000     -33.31150000     -68.62330000
H      -47.40290000     -33.11150000     -67.62270000
H      -48.81690000     -33.76590000     -68.46470000
C      -43.48610000     -35.79560000     -69.47610000
H      -43.38180000     -35.67300000     -68.35900000
H      -43.17330000     -36.78860000     -69.73230000
S      -47.95750000     -31.75150000     -69.47060000
S      -42.18870000     -34.76390000     -70.33760000
C      -46.23390000     -31.16970000     -69.51010000
H      -46.20530000     -30.39510000     -68.73440000
H      -45.52700000     -31.85770000     -69.12340000
C      -42.70120000     -33.11880000     -69.89160000
H      -42.01750000     -32.70520000     -69.10080000
H      -43.71890000     -33.17900000     -69.50130000
C      -42.64590000     -32.14300000     -71.19150000
H      -42.76270000     -31.13070000     -70.83880000
H      -41.53710000     -32.13470000     -71.42990000
C      -45.73470000     -30.53050000     -70.81310000
H      -44.72430000     -30.15390000     -70.65240000
H      -46.38990000     -29.64470000     -70.97650000
C      -45.81250000     -31.39070000     -72.04210000
C      -46.99500000     -31.45980000     -72.69760000
C      -44.82310000     -32.32750000     -72.59920000
H      -47.76700000     -30.70420000     -72.63300000
C      -45.40430000     -33.08870000     -73.64030000
C      -43.49410000     -32.65080000     -72.31450000
C      -42.95600000     -33.59710000     -73.18060000
S      -47.05520000     -32.62330000     -73.99710000
S      -44.29350000     -34.28070000     -74.22550000
H      -41.92400000     -33.93270000     -73.20290000
