40
Properties=species:S:1:pos:R:3 #=T CELL(abcABC):=T 1.889726e+02=T 90.00000=T Traj:=T positionsangstrom=T Step:=T 0=T Bead:=T pbc="F F F"
C      -45.38700000     -37.28830000     -70.16650000
C      -46.57130000     -36.54120000     -70.11490000
C      -46.58630000     -35.42210000     -69.24150000
C      -45.45340000     -34.99120000     -68.55800000
C      -44.22300000     -35.66030000     -68.79260000
C      -44.23330000     -36.82030000     -69.54800000
H      -45.35000000     -37.99390000     -70.88780000
H      -47.45910000     -34.81640000     -69.15560000
H      -43.39570000     -35.32930000     -68.13800000
H      -43.34760000     -37.34120000     -69.67480000
C      -45.57830000     -33.73370000     -67.63710000
H      -45.74660000     -33.92070000     -66.58060000
H      -46.46600000     -33.14050000     -67.89400000
C      -47.73050000     -36.96110000     -70.86440000
H      -47.75670000     -38.08690000     -70.94750000
H      -48.73420000     -36.66010000     -70.46210000
S      -44.13580000     -32.61350000     -67.48740000
S      -47.69540000     -36.21690000     -72.57060000
C      -43.66840000     -32.23930000     -69.23020000
H      -42.90490000     -31.49650000     -69.04520000
H      -43.14020000     -33.07350000     -69.73810000
C      -47.38940000     -34.43250000     -72.22650000
H      -47.91900000     -34.29420000     -71.29020000
H      -47.79460000     -33.73410000     -72.97490000
C      -45.91140000     -34.11420000     -72.22890000
H      -45.51550000     -34.04890000     -71.18580000
H      -45.37020000     -34.99910000     -72.63200000
C      -44.89780000     -31.71870000     -70.05410000
H      -45.34800000     -30.97540000     -69.43440000
H      -45.73360000     -32.41190000     -70.17650000
C      -44.56100000     -31.18900000     -71.46980000
C      -43.77860000     -30.06470000     -71.60290000
C      -45.01900000     -31.65680000     -72.68800000
H      -43.39010000     -29.40650000     -70.78520000
C      -44.60020000     -30.80170000     -73.77030000
C      -45.71260000     -32.86500000     -73.11150000
C      -45.88050000     -32.85990000     -74.46580000
S      -43.46250000     -29.57810000     -73.26760000
S      -45.12150000     -31.48270000     -75.26680000
H      -46.33480000     -33.63200000     -75.01230000
