40
Properties=species:S:1:pos:R:3 #=T CELL(abcABC):=T 1.889726e+02=T 90.00000=T Traj:=T positionsangstrom=T Step:=T 0=T Bead:=T pbc="F F F"
C      -46.10130000     -31.18080000     -68.28870000
C      -45.27750000     -30.78560000     -69.35270000
C      -43.94220000     -31.24490000     -69.39290000
C      -43.52830000     -32.22690000     -68.49630000
C      -44.38700000     -32.71470000     -67.44440000
C      -45.64530000     -32.18610000     -67.40190000
H      -47.07260000     -30.56570000     -68.04790000
H      -43.32810000     -31.04750000     -70.24450000
H      -44.00310000     -33.52490000     -66.78950000
H      -46.36000000     -32.69020000     -66.75940000
C      -42.14540000     -32.74890000     -68.44560000
H      -41.83710000     -33.56450000     -67.79940000
H      -41.42060000     -31.95670000     -68.19850000
C      -45.66200000     -29.86190000     -70.43720000
H      -45.66380000     -28.83660000     -70.08470000
H      -44.84020000     -29.96860000     -71.22360000
S      -41.49010000     -33.35320000     -70.18650000
S      -47.30280000     -30.09860000     -71.09160000
C      -42.77710000     -34.37990000     -70.99740000
H      -42.34590000     -34.69610000     -71.89480000
H      -43.05210000     -35.20110000     -70.32120000
C      -47.29120000     -31.63910000     -72.13120000
H      -46.18960000     -31.59990000     -72.54740000
H      -48.03290000     -31.51500000     -72.93570000
C      -47.50220000     -32.92930000     -71.35250000
H      -46.79930000     -33.06370000     -70.54740000
H      -48.47710000     -33.07230000     -70.88490000
C      -44.01630000     -33.66000000     -71.60610000
H      -43.56630000     -32.79950000     -72.07860000
H      -44.75510000     -33.30190000     -70.94410000
C      -44.64990000     -34.57830000     -72.65070000
C      -43.86460000     -35.32300000     -73.57910000
C      -46.00720000     -34.84850000     -72.70000000
H      -42.73510000     -35.31220000     -73.54890000
C      -46.30540000     -35.82840000     -73.66970000
C      -47.26020000     -34.14200000     -72.24430000
C      -48.35750000     -34.78340000     -72.80610000
S      -44.94170000     -36.56010000     -74.43670000
S      -47.97440000     -36.12110000     -73.87320000
H      -49.39910000     -34.44810000     -72.55020000
