40
Properties=species:S:1:pos:R:3 #=T CELL(abcABC):=T 1.889726e+02=T 90.00000=T Traj:=T positionsangstrom=T Step:=T 0=T Bead:=T pbc="F F F"
C      -45.20570000     -35.92460000     -70.95800000
C      -44.77740000     -35.52570000     -69.66700000
C      -45.62870000     -34.75550000     -68.80870000
C      -46.91460000     -34.33190000     -69.25120000
C      -47.35280000     -34.86260000     -70.49870000
C      -46.49960000     -35.62930000     -71.32150000
H      -44.54580000     -36.54990000     -71.50550000
H      -45.28880000     -34.38290000     -67.80630000
H      -48.36030000     -34.66760000     -70.89330000
H      -46.84680000     -35.93160000     -72.35320000
C      -47.73380000     -33.28980000     -68.52010000
H      -47.20880000     -33.00730000     -67.63140000
H      -48.75760000     -33.75670000     -68.37430000
C      -43.38660000     -35.75700000     -69.28230000
H      -43.11760000     -35.54030000     -68.26430000
H      -43.07480000     -36.81370000     -69.47750000
S      -48.08040000     -31.72940000     -69.50480000
S      -42.14520000     -34.80670000     -70.37850000
C      -46.39070000     -30.98400000     -69.59260000
H      -46.40800000     -30.04460000     -69.02840000
H      -45.67100000     -31.78890000     -69.27660000
C      -42.79960000     -33.15040000     -69.92910000
H      -42.22770000     -32.76000000     -69.12350000
H      -43.87640000     -33.27350000     -69.63450000
C      -42.66550000     -32.13100000     -71.10740000
H      -42.93790000     -31.11630000     -70.88940000
H      -41.60720000     -32.15510000     -71.43260000
C      -46.02940000     -30.50680000     -70.97040000
H      -44.97940000     -30.11100000     -70.82140000
H      -46.66180000     -29.70730000     -71.22860000
C      -46.02220000     -31.45060000     -72.14900000
C      -47.14440000     -31.54420000     -72.94010000
C      -44.93220000     -32.41390000     -72.47950000
H      -48.12430000     -31.13390000     -72.73120000
C      -45.41720000     -33.09810000     -73.66610000
C      -43.56610000     -32.67490000     -72.24510000
C      -43.03950000     -33.53670000     -73.16980000
S      -46.97610000     -32.74630000     -74.20350000
S      -44.15440000     -34.11590000     -74.28610000
H      -42.04950000     -33.90800000     -73.16540000
