40
Properties=species:S:1:pos:R:3 #=T CELL(abcABC):=T 1.889726e+02=T 90.00000=T Traj:=T positionsangstrom=T Step:=T 0=T Bead:=T pbc="F F F"
C      -45.64680000     -36.04770000     -71.43360000
C      -45.08630000     -35.61860000     -70.23440000
C      -45.73160000     -34.57530000     -69.49630000
C      -47.00440000     -34.09140000     -69.93200000
C      -47.45280000     -34.42820000     -71.25010000
C      -46.82680000     -35.49950000     -71.92500000
H      -45.18550000     -36.92100000     -71.92110000
H      -45.55390000     -34.55260000     -68.44460000
H      -48.32940000     -33.87080000     -71.58770000
H      -47.24770000     -35.75540000     -72.86040000
C      -47.69870000     -33.18980000     -68.92930000
H      -47.63600000     -33.63920000     -67.93490000
H      -48.76710000     -33.30760000     -69.17240000
C      -43.73820000     -36.06220000     -69.70070000
H      -43.72790000     -35.99210000     -68.61830000
H      -43.46890000     -37.06890000     -69.96670000
S      -47.41850000     -31.33730000     -68.69590000
S      -42.21740000     -35.15040000     -70.30220000
C      -45.57140000     -31.25640000     -69.09500000
H      -45.13160000     -30.76150000     -68.25810000
H      -45.23570000     -32.30030000     -69.06120000
C      -42.55790000     -33.28370000     -70.15550000
H      -41.79540000     -32.89370000     -69.44670000
H      -43.45690000     -33.08100000     -69.70490000
C      -42.41450000     -32.69230000     -71.54410000
H      -42.15190000     -31.64110000     -71.45830000
H      -41.62030000     -33.14330000     -72.09190000
C      -45.19790000     -30.64480000     -70.45620000
H      -44.18540000     -30.35810000     -70.44740000
H      -45.72420000     -29.62670000     -70.52620000
C      -45.66380000     -31.54390000     -71.63780000
C      -46.92540000     -31.37580000     -72.15780000
C      -44.91410000     -32.44740000     -72.44120000
H      -47.70090000     -30.84800000     -71.68060000
C      -45.65290000     -32.95970000     -73.51380000
C      -43.56980000     -32.96120000     -72.42880000
C      -43.35520000     -33.90810000     -73.42580000
S      -47.23980000     -32.26440000     -73.64770000
S      -44.74050000     -34.14920000     -74.43110000
H      -42.48060000     -34.55940000     -73.54100000
