40
Properties=species:S:1:pos:R:3 #=T CELL(abcABC):=T 1.889726e+02=T 90.00000=T Traj:=T positionsangstrom=T Step:=T 0=T Bead:=T pbc="F F F"
C      -45.31930000     -37.24790000     -70.19140000
C      -46.51020000     -36.56100000     -69.99430000
C      -46.52950000     -35.41030000     -69.18110000
C      -45.38210000     -35.02740000     -68.41020000
C      -44.17690000     -35.67770000     -68.69360000
C      -44.14980000     -36.78370000     -69.59090000
H      -45.36800000     -38.20290000     -70.65830000
H      -47.49360000     -34.92780000     -69.10940000
H      -43.22800000     -35.19270000     -68.37290000
H      -43.22930000     -37.39880000     -69.81270000
C      -45.56720000     -33.85830000     -67.50280000
H      -45.70000000     -34.26130000     -66.44700000
H      -46.55860000     -33.37560000     -67.69060000
C      -47.76720000     -36.93680000     -70.74180000
H      -47.75850000     -37.98770000     -70.85750000
H      -48.60110000     -36.50310000     -70.21770000
S      -44.30850000     -32.55270000     -67.48240000
S      -47.75160000     -36.38170000     -72.44870000
C      -43.92490000     -32.31340000     -69.27000000
H      -43.06330000     -31.53070000     -69.26740000
H      -43.54250000     -33.21510000     -69.74480000
C      -47.30180000     -34.59630000     -72.35870000
H      -47.72880000     -34.20660000     -71.46470000
H      -47.87840000     -34.08770000     -73.19800000
C      -45.74570000     -34.24930000     -72.47360000
H      -45.10640000     -34.24840000     -71.56240000
H      -45.34510000     -35.04550000     -73.06310000
C      -45.01960000     -31.65540000     -70.07620000
H      -45.39350000     -30.70280000     -69.62210000
H      -45.82760000     -32.39440000     -70.23660000
C      -44.52700000     -31.25210000     -71.45860000
C      -43.82710000     -30.07540000     -71.58390000
C      -44.93790000     -31.69140000     -72.73580000
H      -43.41730000     -29.53950000     -70.73920000
C      -44.48210000     -30.83390000     -73.74140000
C      -45.52480000     -32.96430000     -73.29000000
C      -45.58690000     -32.81800000     -74.64120000
S      -43.62890000     -29.42700000     -73.24360000
S      -45.07330000     -31.27800000     -75.31470000
H      -46.17430000     -33.48460000     -75.26790000
