40
Properties=species:S:1:pos:R:3 #=T CELL(abcABC):=T 1.889726e+02=T 90.00000=T Traj:=T positionsangstrom=T Step:=T 0=T Bead:=T pbc="F F F"
C      -44.89170000     -35.97880000     -70.78690000
C      -44.74390000     -35.19700000     -69.61860000
C      -45.77020000     -34.38290000     -69.09530000
C      -47.04080000     -34.24750000     -69.65860000
C      -47.21410000     -35.06020000     -70.87360000
C      -46.14190000     -35.87380000     -71.37550000
H      -44.17550000     -36.49950000     -71.26980000
H      -45.44560000     -33.67020000     -68.33130000
H      -48.21510000     -35.24070000     -71.32580000
H      -46.35430000     -36.25430000     -72.35970000
C      -48.11840000     -33.40330000     -69.12710000
H      -48.10290000     -33.28680000     -68.04470000
H      -49.12110000     -33.83470000     -69.29480000
C      -43.37730000     -35.12310000     -68.98000000
H      -43.31390000     -34.88630000     -67.89880000
H      -42.90250000     -36.11220000     -69.11070000
S      -48.33590000     -31.75920000     -69.90540000
S      -42.15380000     -34.09440000     -69.83530000
C      -46.63160000     -31.09020000     -69.81360000
H      -46.69960000     -30.30690000     -69.08730000
H      -45.95000000     -31.74800000     -69.32100000
C      -42.95080000     -32.39380000     -69.86460000
H      -42.44030000     -31.74220000     -69.14150000
H      -44.02420000     -32.42910000     -69.63030000
C      -42.72850000     -31.71650000     -71.24550000
H      -42.95100000     -30.64680000     -71.17140000
H      -41.70180000     -31.72600000     -71.63010000
C      -46.11760000     -30.57830000     -71.15970000
H      -45.13780000     -30.13280000     -71.10730000
H      -46.86480000     -29.83390000     -71.56690000
C      -46.09120000     -31.62680000     -72.25540000
C      -47.16700000     -31.96900000     -72.96130000
C      -44.94260000     -32.47750000     -72.55510000
H      -48.13410000     -31.58480000     -72.75570000
C      -45.23350000     -33.49090000     -73.42920000
C      -43.51890000     -32.51750000     -72.32470000
C      -42.87620000     -33.58810000     -72.93510000
S      -46.87430000     -33.39280000     -74.00710000
S      -43.92370000     -34.56540000     -73.98660000
H      -41.78940000     -33.70960000     -72.98650000
