40
Properties=species:S:1:pos:R:3 #=T CELL(abcABC):=T 1.889726e+02=T 90.00000=T Traj:=T positionsangstrom=T Step:=T 0=T Bead:=T pbc="F F F"
C      -45.05160000     -35.90310000     -70.64500000
C      -44.68690000     -35.31960000     -69.42500000
C      -45.62950000     -34.66480000     -68.64710000
C      -46.94290000     -34.32690000     -69.21190000
C      -47.18860000     -34.73490000     -70.53200000
C      -46.30650000     -35.56380000     -71.16840000
H      -44.32630000     -36.51140000     -71.17860000
H      -45.44510000     -34.15830000     -67.72900000
H      -48.07340000     -34.46850000     -71.02100000
H      -46.63830000     -36.08050000     -72.10670000
C      -47.79640000     -33.38570000     -68.54710000
H      -47.49240000     -33.15090000     -67.48880000
H      -48.81160000     -33.69500000     -68.60810000
C      -43.30860000     -35.61490000     -68.85230000
H      -43.18860000     -35.36350000     -67.76840000
H      -43.01610000     -36.64010000     -68.90880000
S      -47.95460000     -31.70420000     -69.42550000
S      -42.09450000     -34.56890000     -69.88580000
C      -46.17300000     -31.27960000     -69.86150000
H      -45.79470000     -30.57110000     -69.08340000
H      -45.54040000     -32.13970000     -69.77570000
C      -43.01180000     -33.00120000     -69.86360000
H      -42.67550000     -32.31740000     -69.11090000
H      -44.02430000     -33.20170000     -69.84310000
C      -42.96570000     -32.22000000     -71.15020000
H      -43.29980000     -31.17560000     -70.94700000
H      -41.97450000     -32.04840000     -71.41800000
C      -46.06770000     -30.65680000     -71.20740000
H      -45.15840000     -30.11480000     -71.32290000
H      -46.88460000     -29.93610000     -71.43250000
C      -46.17940000     -31.69960000     -72.30650000
C      -47.35040000     -31.77730000     -73.00480000
C      -45.09360000     -32.48000000     -72.81590000
H      -48.21010000     -31.17220000     -73.02910000
C      -45.45930000     -33.23410000     -73.87870000
C      -43.65980000     -32.71780000     -72.40370000
C      -42.97740000     -33.46610000     -73.30360000
S      -47.12800000     -32.90350000     -74.35220000
S      -44.02680000     -34.04460000     -74.59730000
H      -41.94240000     -33.82240000     -73.23980000
