40
Properties=species:S:1:pos:R:3 #=T CELL(abcABC):=T 1.889726e+02=T 90.00000=T Traj:=T positionsangstrom=T Step:=T 0=T Bead:=T pbc="F F F"
C      -45.04480000     -36.15770000     -70.42270000
C      -44.74070000     -35.23540000     -69.40530000
C      -45.78130000     -34.38370000     -68.91490000
C      -47.05580000     -34.40790000     -69.51250000
C      -47.24160000     -35.27480000     -70.60110000
C      -46.32950000     -36.22220000     -70.94350000
H      -44.38580000     -36.88820000     -70.72080000
H      -45.46690000     -33.69390000     -68.11980000
H      -48.25410000     -35.55000000     -70.85880000
H      -46.40030000     -36.94220000     -71.67760000
C      -48.16080000     -33.47270000     -69.04500000
H      -48.07340000     -33.19850000     -67.99690000
H      -49.14710000     -33.93100000     -69.01350000
C      -43.38360000     -35.22570000     -68.70890000
H      -43.48850000     -35.03270000     -67.64650000
H      -43.01290000     -36.24610000     -68.77610000
S      -48.29180000     -31.97360000     -70.10320000
S      -42.01670000     -34.05970000     -69.46580000
C      -46.60750000     -31.26620000     -70.05750000
H      -46.47450000     -30.58550000     -69.12970000
H      -45.78880000     -32.08130000     -69.90430000
C      -42.89590000     -32.41300000     -69.53910000
H      -42.41560000     -31.69130000     -68.81960000
H      -43.94800000     -32.58650000     -69.30100000
C      -42.91970000     -31.83100000     -70.96140000
H      -43.31470000     -30.83670000     -70.90610000
H      -41.87510000     -31.71270000     -71.29770000
C      -46.29120000     -30.58010000     -71.41810000
H      -45.39480000     -29.96290000     -71.29930000
H      -47.08870000     -29.81700000     -71.62840000
C      -46.13170000     -31.56660000     -72.50140000
C      -47.13080000     -31.74970000     -73.43420000
C      -44.98890000     -32.35430000     -72.75570000
H      -47.98390000     -31.08220000     -73.52870000
C      -45.15850000     -33.20720000     -73.83650000
C      -43.66540000     -32.62090000     -72.10510000
C      -43.00680000     -33.64250000     -72.75960000
S      -46.71780000     -33.01580000     -74.57650000
S      -43.85550000     -34.35590000     -74.10810000
H      -42.06610000     -34.06770000     -72.44660000
