40
Properties=species:S:1:pos:R:3 #=T CELL(abcABC):=T 1.889726e+02=T 90.00000=T Traj:=T positionsangstrom=T Step:=T 0=T Bead:=T pbc="F F F"
C      -45.07000000     -36.03250000     -70.70290000
C      -44.68860000     -35.18860000     -69.66540000
C      -45.72420000     -34.44580000     -69.02020000
C      -46.98740000     -34.29120000     -69.55760000
C      -47.37830000     -35.02010000     -70.70290000
C      -46.38980000     -35.93520000     -71.19340000
H      -44.37670000     -36.67330000     -71.25130000
H      -45.41870000     -33.68770000     -68.25580000
H      -48.38590000     -34.99210000     -71.24600000
H      -46.61080000     -36.61160000     -71.95620000
C      -48.00670000     -33.53000000     -68.78580000
H      -47.92740000     -33.62030000     -67.68660000
H      -49.06100000     -33.85290000     -68.97930000
C      -43.29560000     -35.20700000     -69.11630000
H      -43.25760000     -35.07680000     -68.06030000
H      -42.84230000     -36.22300000     -69.26830000
S      -48.10100000     -31.69250000     -69.19950000
S      -41.99900000     -34.14340000     -69.72920000
C      -46.37570000     -31.27970000     -69.57890000
H      -46.09680000     -30.49300000     -68.91940000
H      -45.67310000     -32.04260000     -69.17920000
C      -42.77360000     -32.43910000     -69.99920000
H      -42.36960000     -31.66720000     -69.32400000
H      -43.83240000     -32.54040000     -69.72050000
C      -42.79520000     -31.80900000     -71.47530000
H      -43.20660000     -30.83400000     -71.46100000
H      -41.67060000     -31.77830000     -71.68560000
C      -46.02210000     -30.87010000     -71.03110000
H      -44.97730000     -30.52450000     -71.06800000
H      -46.62460000     -30.05090000     -71.31730000
C      -46.12910000     -31.85180000     -72.19020000
C      -47.30800000     -31.97810000     -72.90280000
C      -44.98390000     -32.53730000     -72.76050000
H      -48.31440000     -31.72220000     -72.59650000
C      -45.38860000     -33.31400000     -73.89970000
C      -43.53600000     -32.60480000     -72.52620000
C      -42.93220000     -33.64680000     -73.28160000
S      -47.02340000     -33.12620000     -74.25030000
S      -44.10360000     -34.28980000     -74.45370000
H      -41.88420000     -33.97990000     -73.36440000
