40
Properties=species:S:1:pos:R:3 #=T CELL(abcABC):=T 1.889726e+02=T 90.00000=T Traj:=T positionsangstrom=T Step:=T 0=T Bead:=T pbc="F F F"
C      -44.73100000     -35.94650000     -70.18420000
C      -44.66530000     -35.26720000     -68.97290000
C      -45.84740000     -34.50470000     -68.63860000
C      -46.95930000     -34.45850000     -69.46370000
C      -47.02850000     -35.15180000     -70.64340000
C      -45.92610000     -35.98810000     -70.98630000
H      -43.84900000     -36.52220000     -70.44240000
H      -45.81350000     -34.01440000     -67.69750000
H      -47.93340000     -35.24110000     -71.14770000
H      -45.96980000     -36.52840000     -72.02580000
C      -48.07310000     -33.46170000     -69.11830000
H      -47.91630000     -32.97980000     -68.13960000
H      -49.08970000     -33.89650000     -68.92770000
C      -43.41110000     -35.09190000     -68.18520000
H      -43.71710000     -34.63060000     -67.21500000
H      -42.84630000     -35.98240000     -67.78950000
S      -48.31590000     -32.13170000     -70.40650000
S      -42.33780000     -34.08220000     -69.24410000
C      -46.77080000     -31.17790000     -70.27500000
H      -46.79700000     -30.38880000     -69.53930000
H      -46.01400000     -31.81360000     -69.83080000
C      -43.34980000     -32.51810000     -69.43710000
H      -43.02870000     -31.72540000     -68.76660000
H      -44.39120000     -32.78920000     -69.22380000
C      -43.35460000     -31.90300000     -70.87920000
H      -44.00300000     -31.02640000     -70.81400000
H      -42.31380000     -31.51450000     -71.01270000
C      -46.45310000     -30.55230000     -71.61710000
H      -45.62000000     -29.87350000     -71.41370000
H      -47.26830000     -29.89620000     -71.89910000
C      -46.11070000     -31.52030000     -72.69050000
C      -46.97610000     -31.72270000     -73.72180000
C      -44.98580000     -32.50420000     -72.71120000
H      -47.76950000     -31.01420000     -73.93560000
C      -45.05860000     -33.25900000     -73.87750000
C      -43.76700000     -32.78150000     -72.02180000
C      -43.08500000     -33.84830000     -72.53890000
S      -46.44840000     -32.90270000     -74.87100000
S      -43.71620000     -34.33370000     -74.12260000
H      -42.03540000     -34.07960000     -72.26140000
