40
Properties=species:S:1:pos:R:3 #=T CELL(abcABC):=T 1.889726e+02=T 90.00000=T Traj:=T positionsangstrom=T Step:=T 0=T Bead:=T pbc="F F F"
C      -44.95160000     -35.58930000     -70.45170000
C      -44.98280000     -34.64700000     -69.37190000
C      -46.20530000     -34.03940000     -69.06310000
C      -47.31080000     -34.20710000     -69.88880000
C      -47.26900000     -35.20070000     -70.89830000
C      -46.07930000     -35.88880000     -71.17960000
H      -44.06800000     -36.04170000     -70.82050000
H      -46.24260000     -33.41300000     -68.19300000
H      -48.13740000     -35.27710000     -71.51870000
H      -46.10000000     -36.66210000     -71.96800000
C      -48.52420000     -33.37460000     -69.70330000
H      -48.66740000     -33.10240000     -68.61880000
H      -49.40990000     -33.94810000     -70.01810000
C      -43.76620000     -34.54810000     -68.47310000
H      -44.10300000     -34.09620000     -67.46650000
H      -43.42330000     -35.61950000     -68.26250000
S      -48.55710000     -31.77710000     -70.65240000
S      -42.28840000     -33.66570000     -69.19740000
C      -46.96510000     -30.92020000     -70.31130000
H      -47.07710000     -30.00410000     -69.79610000
H      -46.47410000     -31.58950000     -69.66320000
C      -43.17860000     -32.09050000     -69.58940000
H      -42.83720000     -31.28940000     -68.87540000
H      -44.22950000     -32.29000000     -69.52710000
C      -42.83610000     -31.63610000     -71.03970000
H      -43.25010000     -30.60560000     -71.25480000
H      -41.71570000     -31.51730000     -71.14000000
C      -46.19260000     -30.72030000     -71.65580000
H      -45.21890000     -30.25100000     -71.38610000
H      -46.81160000     -30.02310000     -72.20530000
C      -45.93480000     -31.96340000     -72.54150000
C      -46.93770000     -32.53900000     -73.21170000
C      -44.70500000     -32.71050000     -72.64270000
H      -47.87820000     -32.07850000     -73.42580000
C      -44.85450000     -33.79070000     -73.45670000
C      -43.37610000     -32.67300000     -72.06490000
C      -42.55690000     -33.59000000     -72.65320000
S      -46.49460000     -33.96910000     -74.06020000
S      -43.42590000     -34.68590000     -73.75400000
H      -41.52010000     -33.72670000     -72.50790000
