40
Properties=species:S:1:pos:R:3 #=T CELL(abcABC):=T 1.889726e+02=T 90.00000=T Traj:=T positionsangstrom=T Step:=T 0=T Bead:=T pbc="F F F"
C      -45.21220000     -35.58470000     -70.19060000
C      -45.15470000     -34.66500000     -69.16930000
C      -46.23410000     -33.85360000     -68.90150000
C      -47.41950000     -33.96180000     -69.71460000
C      -47.43080000     -34.92590000     -70.72870000
C      -46.34900000     -35.71280000     -70.94970000
H      -44.34640000     -36.24540000     -70.22580000
H      -46.16890000     -33.09870000     -68.10850000
H      -48.30590000     -35.05010000     -71.30710000
H      -46.44840000     -36.29160000     -71.80920000
C      -48.64640000     -33.08220000     -69.48780000
H      -48.53860000     -32.75640000     -68.44500000
H      -49.56020000     -33.71450000     -69.73640000
C      -43.95720000     -34.38870000     -68.30090000
H      -44.22110000     -33.60410000     -67.57340000
H      -43.51690000     -35.31280000     -67.76270000
S      -48.77420000     -31.62860000     -70.59180000
S      -42.54240000     -33.70210000     -69.36260000
C      -47.06350000     -30.93350000     -70.61880000
H      -47.09380000     -29.91050000     -70.22940000
H      -46.45290000     -31.57140000     -69.85680000
C      -43.06820000     -32.00240000     -69.74910000
H      -42.68130000     -31.17410000     -69.14460000
H      -44.18400000     -31.93990000     -69.72190000
C      -42.81100000     -31.54930000     -71.18170000
H      -43.40450000     -30.65780000     -71.35740000
H      -41.76300000     -31.19850000     -71.29840000
C      -46.33630000     -30.90900000     -71.95940000
H      -45.44970000     -30.32320000     -71.80910000
H      -46.87530000     -30.30760000     -72.67550000
C      -45.92400000     -32.29020000     -72.50240000
C      -46.85740000     -33.00830000     -73.22070000
C      -44.57040000     -32.86170000     -72.63770000
H      -47.88420000     -32.69990000     -73.27910000
C      -44.57670000     -33.95570000     -73.53750000
C      -43.17490000     -32.59940000     -72.24910000
C      -42.25040000     -33.51970000     -72.66190000
S      -46.20330000     -34.30170000     -74.12740000
S      -43.06460000     -34.65270000     -73.74020000
H      -41.15600000     -33.58860000     -72.46100000
