40
Properties=species:S:1:pos:R:3 #=T CELL(abcABC):=T 1.889726e+02=T 90.00000=T Traj:=T positionsangstrom=T Step:=T 0=T Bead:=T pbc="F F F"
C      -45.06080000     -35.62730000     -70.21100000
C      -45.06290000     -34.64500000     -69.23420000
C      -46.16710000     -33.80710000     -69.08320000
C      -47.31510000     -33.92500000     -69.94470000
C      -47.25460000     -34.99780000     -70.89960000
C      -46.17150000     -35.82860000     -71.05940000
H      -44.16750000     -36.22220000     -70.27220000
H      -46.26820000     -33.09930000     -68.20380000
H      -48.14250000     -35.23320000     -71.55090000
H      -46.28030000     -36.62310000     -71.77200000
C      -48.54860000     -33.21000000     -69.60380000
H      -48.56940000     -32.98770000     -68.53780000
H      -49.49470000     -33.66490000     -69.83410000
C      -43.80930000     -34.46570000     -68.42340000
H      -43.93120000     -33.96470000     -67.47930000
H      -43.40010000     -35.37390000     -68.14500000
S      -48.75840000     -31.58990000     -70.57930000
S      -42.42470000     -33.75050000     -69.35600000
C      -47.12890000     -30.91470000     -70.49670000
H      -47.38050000     -29.89530000     -70.27400000
H      -46.54380000     -31.30030000     -69.57240000
C      -43.15670000     -31.96600000     -69.72690000
H      -42.73310000     -31.25380000     -69.02130000
H      -44.20330000     -31.98700000     -69.40110000
C      -42.78950000     -31.56270000     -71.16600000
H      -43.24380000     -30.59380000     -71.29340000
H      -41.71050000     -31.61600000     -71.21200000
C      -46.28270000     -30.89910000     -71.70270000
H      -45.30970000     -30.38320000     -71.59900000
H      -46.90710000     -30.29910000     -72.42580000
C      -46.00230000     -32.17950000     -72.48730000
C      -46.94840000     -32.79230000     -73.22520000
C      -44.66300000     -32.80600000     -72.58550000
H      -47.97900000     -32.58890000     -73.09150000
C      -44.71940000     -33.92730000     -73.46440000
C      -43.26690000     -32.63250000     -72.12290000
C      -42.39550000     -33.54540000     -72.64150000
S      -46.36370000     -34.22590000     -74.09900000
S      -43.16240000     -34.70810000     -73.68710000
H      -41.32150000     -33.55750000     -72.53880000
