40
Properties=species:S:1:pos:R:3 #=T CELL(abcABC):=T 1.889726e+02=T 90.00000=T Traj:=T positionsangstrom=T Step:=T 0=T Bead:=T pbc="F F F"
C      -45.12770000     -35.93260000     -69.96540000
C      -44.86320000     -34.88970000     -69.02040000
C      -45.85490000     -33.91340000     -68.71720000
C      -47.19390000     -33.97480000     -69.30650000
C      -47.37010000     -35.01730000     -70.18890000
C      -46.39270000     -35.95790000     -70.49630000
H      -44.40530000     -36.76910000     -70.05770000
H      -45.62410000     -33.14110000     -67.96480000
H      -48.34470000     -35.04310000     -70.76210000
H      -46.57010000     -36.73320000     -71.22650000
C      -48.30480000     -32.99000000     -69.04860000
H      -47.97610000     -32.37780000     -68.21480000
H      -49.20650000     -33.52580000     -68.72950000
C      -43.52790000     -34.70220000     -68.40930000
H      -43.51110000     -34.30770000     -67.39920000
H      -43.04180000     -35.66420000     -68.30950000
S      -48.71930000     -31.87350000     -70.51390000
S      -42.55570000     -33.72160000     -69.61850000
C      -47.15330000     -30.84530000     -70.66140000
H      -47.26020000     -29.86650000     -70.31280000
H      -46.37830000     -31.33640000     -70.01120000
C      -43.55030000     -32.18000000     -69.79210000
H      -43.41620000     -31.55230000     -68.89920000
H      -44.64430000     -32.35720000     -69.73690000
C      -43.14790000     -31.55690000     -71.06770000
H      -43.78140000     -30.60430000     -71.22160000
H      -42.08190000     -31.25950000     -71.12350000
C      -46.52550000     -30.84630000     -72.05360000
H      -45.66800000     -30.14360000     -72.05490000
H      -47.39400000     -30.39740000     -72.66280000
C      -46.05300000     -32.13020000     -72.69330000
C      -46.92830000     -32.89630000     -73.44090000
C      -44.74430000     -32.66150000     -72.79310000
H      -48.01100000     -32.59460000     -73.66620000
C      -44.61930000     -33.82760000     -73.57080000
C      -43.48510000     -32.39580000     -72.26520000
C      -42.47090000     -33.11660000     -72.81420000
S      -46.12790000     -34.26570000     -74.32800000
S      -43.05570000     -34.37180000     -73.97120000
H      -41.44890000     -33.07830000     -72.41500000
