40
Properties=species:S:1:pos:R:3 #=T CELL(abcABC):=T 1.889726e+02=T 90.00000=T Traj:=T positionsangstrom=T Step:=T 0=T Bead:=T pbc="F F F"
C      -45.09900000     -35.83350000     -69.90320000
C      -44.89540000     -34.78280000     -69.02390000
C      -46.02590000     -34.02710000     -68.60620000
C      -47.33040000     -34.22160000     -69.18570000
C      -47.45040000     -35.22400000     -70.17100000
C      -46.35200000     -36.00300000     -70.48730000
H      -44.20010000     -36.34940000     -70.22170000
H      -45.87510000     -33.25120000     -67.85340000
H      -48.43520000     -35.35520000     -70.67020000
H      -46.52340000     -36.82330000     -71.15130000
C      -48.36610000     -33.11240000     -68.88230000
H      -48.12220000     -32.49780000     -67.92640000
H      -49.39990000     -33.46780000     -68.78570000
C      -43.51010000     -34.50860000     -68.41460000
H      -43.67110000     -33.82140000     -67.58210000
H      -43.01860000     -35.41110000     -68.06660000
S      -48.48980000     -32.08460000     -70.47300000
S      -42.28760000     -33.63660000     -69.57150000
C      -46.91580000     -31.06620000     -70.58240000
H      -46.92320000     -30.10830000     -69.95970000
H      -46.16630000     -31.70870000     -70.05130000
C      -43.26750000     -32.04710000     -69.77930000
H      -42.86740000     -31.23380000     -69.12730000
H      -44.29490000     -32.32670000     -69.61910000
C      -43.11880000     -31.38890000     -71.25340000
H      -43.71420000     -30.52720000     -71.22670000
H      -42.02690000     -31.23590000     -71.36580000
C      -46.57910000     -30.80640000     -72.06010000
H      -45.84460000     -30.00430000     -72.06400000
H      -47.36640000     -30.37920000     -72.70080000
C      -46.16770000     -32.09440000     -72.76030000
C      -47.12010000     -32.87980000     -73.45330000
C      -44.82670000     -32.62430000     -72.92580000
H      -48.18890000     -32.79260000     -73.47450000
C      -44.75440000     -33.73190000     -73.77730000
C      -43.53020000     -32.33620000     -72.39950000
C      -42.54060000     -33.07390000     -72.95000000
S      -46.33960000     -34.22530000     -74.27570000
S      -43.15840000     -34.32380000     -74.00370000
H      -41.55180000     -33.12170000     -72.64280000
