40
Properties=species:S:1:pos:R:3 #=T CELL(abcABC):=T 1.889726e+02=T 90.00000=T Traj:=T positionsangstrom=T Step:=T 0=T Bead:=T pbc="F F F"
C      -45.79880000     -36.70180000     -73.67660000
C      -46.65840000     -35.70550000     -73.31470000
C      -46.51260000     -34.39400000     -73.93240000
C      -45.39340000     -34.09700000     -74.70940000
C      -44.45350000     -35.12920000     -74.92140000
C      -44.69470000     -36.42840000     -74.46330000
H      -45.93210000     -37.71290000     -73.38900000
H      -47.21450000     -33.55550000     -73.74520000
H      -43.62090000     -34.84840000     -75.43060000
H      -44.07870000     -37.25150000     -74.79740000
C      -45.23470000     -32.69320000     -75.19630000
H      -46.09860000     -32.12080000     -74.97980000
H      -45.00780000     -32.66650000     -76.29150000
C      -47.71600000     -36.03020000     -72.28710000
H      -48.68460000     -35.56510000     -72.53930000
H      -47.79490000     -37.16070000     -72.28000000
S      -43.75220000     -31.91000000     -74.52770000
S      -47.37620000     -35.47280000     -70.60060000
C      -43.83260000     -31.95080000     -72.77340000
H      -43.49290000     -32.94790000     -72.37760000
H      -43.03610000     -31.20950000     -72.44480000
C      -45.55670000     -35.91330000     -70.37140000
H      -45.34710000     -36.70880000     -71.14640000
H      -45.28970000     -36.43490000     -69.45080000
C      -44.71640000     -34.68700000     -70.55170000
H      -43.65150000     -34.89300000     -70.67680000
H      -45.06340000     -34.14720000     -71.43790000
C      -45.28870000     -31.62970000     -72.17800000
H      -46.06050000     -32.34060000     -72.39670000
H      -45.49440000     -30.59720000     -72.51740000
C      -45.07250000     -31.42810000     -70.62260000
C      -45.21620000     -30.11780000     -70.19170000
C      -44.85260000     -32.31880000     -69.50130000
H      -45.35320000     -29.18740000     -70.75380000
C      -44.89780000     -31.68120000     -68.26850000
C      -44.81840000     -33.78940000     -69.32630000
C      -44.83860000     -34.15750000     -67.96600000
S      -45.21760000     -29.98040000     -68.48500000
S      -44.85860000     -32.74370000     -66.85500000
H      -44.78520000     -35.19320000     -67.59380000
