40
Properties=species:S:1:pos:R:3 #=T CELL(abcABC):=T 1.889726e+02=T 90.00000=T Traj:=T positionsangstrom=T Step:=T 0=T Bead:=T pbc="F F F"
C      -43.98920000     -35.55160000     -70.47540000
C      -44.02720000     -34.68870000     -69.38160000
C      -45.27900000     -34.27210000     -68.96080000
C      -46.51880000     -34.57340000     -69.56850000
C      -46.43120000     -35.30710000     -70.79450000
C      -45.18620000     -35.79870000     -71.17000000
H      -43.09800000     -36.04480000     -70.85400000
H      -45.20820000     -33.77360000     -68.01150000
H      -47.32000000     -35.47190000     -71.36120000
H      -45.03010000     -36.42520000     -72.07090000
C      -47.87620000     -34.17090000     -68.99370000
H      -47.77830000     -33.94490000     -67.94730000
H      -48.71300000     -34.80850000     -69.10740000
C      -42.66510000     -34.27250000     -68.80630000
H      -42.68570000     -34.03440000     -67.76880000
H      -41.99830000     -35.17790000     -68.79300000
S      -48.53140000     -32.58760000     -69.81040000
S      -41.80220000     -32.79660000     -69.57620000
C      -47.03680000     -31.49200000     -69.95410000
H      -47.23490000     -30.71860000     -69.24720000
H      -46.12650000     -31.98640000     -69.52940000
C      -43.21880000     -31.64480000     -70.03780000
H      -43.02030000     -30.72550000     -69.43730000
H      -44.03420000     -32.01200000     -69.56950000
C      -43.34860000     -31.42370000     -71.58420000
H      -43.80700000     -30.44050000     -71.64720000
H      -42.38140000     -31.16060000     -72.06170000
C      -46.79590000     -30.93010000     -71.31600000
H      -45.86340000     -30.31150000     -71.32220000
H      -47.58650000     -30.32430000     -71.69980000
C      -46.60580000     -32.01230000     -72.39180000
C      -47.74150000     -32.56270000     -72.99420000
C      -45.37160000     -32.60860000     -72.77840000
H      -48.69660000     -32.11080000     -73.06070000
C      -45.60480000     -33.69990000     -73.67140000
C      -43.95210000     -32.53750000     -72.36460000
C      -43.20040000     -33.42100000     -73.08720000
S      -47.19370000     -33.72880000     -74.19660000
S      -44.04370000     -34.62800000     -74.03220000
H      -42.15380000     -33.42040000     -73.11410000
