40
Properties=species:S:1:pos:R:3 #=T CELL(abcABC):=T 1.889726e+02=T 90.00000=T Traj:=T positionsangstrom=T Step:=T 0=T Bead:=T pbc="F F F"
C      -44.43720000     -35.57080000     -70.24270000
C      -44.50250000     -34.60680000     -69.27250000
C      -45.69050000     -34.01890000     -69.00430000
C      -46.94120000     -34.38990000     -69.59870000
C      -46.87310000     -35.46380000     -70.52160000
C      -45.62990000     -36.00950000     -70.82360000
H      -43.47160000     -35.92110000     -70.53650000
H      -45.72580000     -33.27700000     -68.21020000
H      -47.80310000     -35.76810000     -71.01380000
H      -45.53510000     -36.83550000     -71.57520000
C      -48.19330000     -33.78520000     -69.07220000
H      -48.03360000     -33.43700000     -68.02220000
H      -48.99590000     -34.57120000     -69.21020000
C      -43.23020000     -34.28880000     -68.47400000
H      -43.49890000     -33.65070000     -67.65830000
H      -42.68510000     -35.19960000     -68.30740000
S      -48.68490000     -32.30940000     -70.12230000
S      -42.13210000     -33.25880000     -69.58690000
C      -47.15130000     -31.21000000     -70.21780000
H      -47.19000000     -30.28480000     -69.76790000
H      -46.34140000     -31.73870000     -69.69480000
C      -43.13130000     -31.70960000     -69.92260000
H      -42.76160000     -30.89390000     -69.34520000
H      -44.15050000     -32.04760000     -69.71240000
C      -43.02840000     -31.41960000     -71.42640000
H      -43.64650000     -30.51080000     -71.61210000
H      -41.94070000     -31.30430000     -71.66520000
C      -46.53060000     -30.88520000     -71.61760000
H      -45.61740000     -30.44860000     -71.43530000
H      -47.16890000     -30.12980000     -72.15110000
C      -46.26120000     -32.02980000     -72.54630000
C      -47.33510000     -32.60930000     -73.18750000
C      -44.94800000     -32.57310000     -72.76420000
H      -48.38820000     -32.29880000     -73.04350000
C      -45.19030000     -33.69320000     -73.64060000
C      -43.53730000     -32.46190000     -72.33150000
C      -42.75850000     -33.29700000     -73.05610000
S      -46.84350000     -34.07690000     -74.10650000
S      -43.65610000     -34.48480000     -74.04980000
H      -41.66640000     -33.46230000     -72.95100000
