40
Properties=species:S:1:pos:R:3 #=T CELL(abcABC):=T 1.889726e+02=T 90.00000=T Traj:=T positionsangstrom=T Step:=T 0=T Bead:=T pbc="F F F"
C      -45.39620000     -35.55980000     -70.18280000
C      -45.26090000     -34.68020000     -69.12480000
C      -46.33810000     -33.91960000     -68.67450000
C      -47.54960000     -34.02000000     -69.33790000
C      -47.70920000     -34.96490000     -70.34720000
C      -46.62110000     -35.75840000     -70.75990000
H      -44.64440000     -36.23680000     -70.53010000
H      -46.31760000     -33.17140000     -67.87060000
H      -48.70920000     -35.09450000     -70.83570000
H      -46.67820000     -36.61390000     -71.49610000
C      -48.49460000     -32.90950000     -69.08720000
H      -48.22330000     -32.27890000     -68.20630000
H      -49.52950000     -33.31210000     -68.93340000
C      -43.90120000     -34.65810000     -68.47270000
H      -43.86920000     -34.30060000     -67.42400000
H      -43.44820000     -35.65820000     -68.40760000
S      -48.55450000     -31.75230000     -70.54760000
S      -42.60360000     -33.66790000     -69.38030000
C      -46.83260000     -31.06600000     -70.63360000
H      -46.92840000     -30.01120000     -70.11910000
H      -46.25930000     -31.75310000     -69.99500000
C      -43.33180000     -31.98300000     -69.64630000
H      -43.04080000     -31.23150000     -68.88800000
H      -44.40920000     -32.04210000     -69.46880000
C      -42.99050000     -31.43660000     -71.12830000
H      -43.41700000     -30.48170000     -71.37770000
H      -41.90260000     -31.43270000     -71.09830000
C      -46.36930000     -30.99140000     -72.12130000
H      -45.55250000     -30.30690000     -72.17880000
H      -47.21060000     -30.61060000     -72.72190000
C      -45.90000000     -32.27580000     -72.70410000
C      -46.79870000     -33.00230000     -73.43050000
C      -44.54120000     -32.81760000     -72.81500000
H      -47.91140000     -32.84980000     -73.46210000
C      -44.49140000     -33.85220000     -73.71500000
C      -43.24630000     -32.45930000     -72.23640000
C      -42.28100000     -33.33680000     -72.72240000
S      -46.09090000     -34.38310000     -74.31170000
S      -42.91610000     -34.48420000     -73.85480000
H      -41.22470000     -33.32290000     -72.52860000
