40
Properties=species:S:1:pos:R:3 #=T CELL(abcABC):=T 1.889726e+02=T 90.00000=T Traj:=T positionsangstrom=T Step:=T 0=T Bead:=T pbc="F F F"
C      -43.72740000     -35.47710000     -70.62340000
C      -43.44950000     -34.54940000     -69.62550000
C      -44.47430000     -34.20630000     -68.72880000
C      -45.76140000     -34.79450000     -68.76120000
C      -46.00880000     -35.77770000     -69.73810000
C      -45.01390000     -36.06070000     -70.65670000
H      -43.00550000     -35.68200000     -71.43260000
H      -44.19650000     -33.61370000     -67.84410000
H      -47.00980000     -36.15200000     -69.69220000
H      -45.19770000     -36.72630000     -71.47690000
C      -46.82120000     -34.31620000     -67.83240000
H      -46.33670000     -33.59530000     -67.23290000
H      -47.21110000     -35.15880000     -67.23290000
C      -42.12180000     -33.79720000     -69.73670000
H      -41.92290000     -33.36880000     -68.66570000
H      -41.23700000     -34.41530000     -70.03950000
S      -48.23390000     -33.36550000     -68.80640000
S      -42.11340000     -32.46580000     -71.02870000
C      -47.11180000     -31.97200000     -69.53400000
H      -47.32090000     -31.11640000     -68.86960000
H      -46.03800000     -32.24500000     -69.54150000
C      -43.54800000     -31.40620000     -70.53970000
H      -43.30150000     -30.52340000     -69.87960000
H      -44.27530000     -31.88320000     -69.96030000
C      -44.07250000     -30.70750000     -71.83640000
H      -44.93010000     -30.10440000     -71.56230000
H      -43.32850000     -29.99100000     -72.15590000
C      -47.43040000     -31.57730000     -70.96550000
H      -47.15340000     -30.56970000     -71.31000000
H      -48.56550000     -31.59930000     -71.00190000
C      -46.98870000     -32.56520000     -72.02650000
C      -47.84260000     -33.53620000     -72.54380000
C      -45.75450000     -32.49780000     -72.82660000
H      -48.79110000     -33.64870000     -72.03380000
C      -45.78180000     -33.44870000     -73.77860000
C      -44.52210000     -31.68370000     -72.86950000
C      -43.66250000     -32.22590000     -73.83370000
S      -47.18520000     -34.55610000     -73.78020000
S      -44.32360000     -33.51890000     -74.77920000
H      -42.84800000     -31.61720000     -74.20150000
