40
Properties=species:S:1:pos:R:3 #=T CELL(abcABC):=T 1.889726e+02=T 90.00000=T Traj:=T positionsangstrom=T Step:=T 0=T Bead:=T pbc="F F F"
C      -45.60900000     -36.77920000     -74.01250000
C      -46.50330000     -35.99470000     -73.32270000
C      -46.55410000     -34.61500000     -73.66090000
C      -45.67190000     -34.10280000     -74.63860000
C      -44.65350000     -34.91240000     -75.21310000
C      -44.67160000     -36.24510000     -74.95300000
H      -45.55790000     -37.87520000     -73.87960000
H      -47.32040000     -33.96010000     -73.22710000
H      -43.92090000     -34.49980000     -75.87940000
H      -44.05590000     -36.97160000     -75.42750000
C      -45.72050000     -32.66380000     -75.10280000
H      -46.73510000     -32.13610000     -74.78400000
H      -45.76920000     -32.56110000     -76.21950000
C      -47.38980000     -36.48880000     -72.20890000
H      -48.42400000     -36.44660000     -72.56700000
H      -47.15670000     -37.52410000     -72.01360000
S      -44.23330000     -31.67470000     -74.63870000
S      -47.25320000     -35.49880000     -70.56640000
C      -44.08260000     -31.69860000     -72.81350000
H      -43.57330000     -32.59740000     -72.38160000
H      -43.43580000     -30.86710000     -72.65400000
C      -45.52320000     -35.89910000     -70.13060000
H      -45.36900000     -36.81570000     -70.70980000
H      -45.57150000     -36.22760000     -69.11600000
C      -44.61380000     -34.71380000     -70.48660000
H      -43.63250000     -35.12800000     -70.88380000
H      -45.09880000     -34.33490000     -71.34230000
C      -45.34390000     -31.42230000     -72.05660000
H      -45.94880000     -32.29750000     -72.23160000
H      -45.83040000     -30.52380000     -72.35240000
C      -45.06760000     -31.33810000     -70.59540000
C      -45.23880000     -30.11960000     -69.98590000
C      -44.89780000     -32.34070000     -69.54550000
H      -45.47880000     -29.17760000     -70.41880000
C      -44.81790000     -31.70740000     -68.26210000
C      -44.59840000     -33.75920000     -69.39600000
C      -44.34420000     -34.16270000     -68.07150000
S      -45.19580000     -29.99450000     -68.29970000
S      -44.58500000     -32.87670000     -66.89540000
H      -44.12430000     -35.25480000     -67.89140000
