40
Properties=species:S:1:pos:R:3 #=T CELL(abcABC):=T 1.889726e+02=T 90.00000=T Traj:=T positionsangstrom=T Step:=T 0=T Bead:=T pbc="F F F"
C      -43.70310000     -35.52070000     -70.24230000
C      -43.53710000     -34.53460000     -69.30500000
C      -44.74560000     -34.26950000     -68.53720000
C      -45.95430000     -34.86310000     -68.83490000
C      -46.06820000     -35.76020000     -69.90110000
C      -44.87700000     -36.19770000     -70.54810000
H      -42.76520000     -35.77250000     -70.79890000
H      -44.78050000     -33.66770000     -67.62070000
H      -47.02550000     -36.17220000     -70.18780000
H      -44.99480000     -36.84480000     -71.36820000
C      -47.18820000     -34.34920000     -68.14740000
H      -46.91580000     -33.83440000     -67.27220000
H      -47.75560000     -35.16610000     -67.74680000
C      -42.20740000     -33.82120000     -69.17860000
H      -42.07870000     -33.51370000     -68.17900000
H      -41.30600000     -34.45620000     -69.29170000
S      -48.38220000     -33.44770000     -69.26840000
S      -41.96920000     -32.42080000     -70.35240000
C      -47.12600000     -32.12400000     -69.91190000
H      -47.22920000     -31.36600000     -69.09800000
H      -46.19380000     -32.67030000     -69.94750000
C      -43.64850000     -31.65490000     -70.39610000
H      -43.77720000     -31.08150000     -69.39020000
H      -44.34730000     -32.43550000     -70.26280000
C      -43.92410000     -30.82400000     -71.66110000
H      -44.68880000     -30.03370000     -71.44270000
H      -42.92840000     -30.44070000     -71.98390000
C      -47.44030000     -31.52260000     -71.19330000
H      -46.83460000     -30.58380000     -71.13800000
H      -48.46700000     -31.13010000     -71.12920000
C      -47.06220000     -32.29780000     -72.39790000
C      -47.90080000     -33.31910000     -72.86080000
C      -45.69220000     -32.42280000     -72.93060000
H      -48.92870000     -33.62370000     -72.52790000
C      -45.65770000     -33.41750000     -73.89650000
C      -44.42910000     -31.78890000     -72.77490000
C      -43.52540000     -32.26180000     -73.73890000
S      -47.16240000     -34.30230000     -74.06840000
S      -44.09040000     -33.52580000     -74.73450000
H      -42.59110000     -31.72740000     -73.82760000
