40
Properties=species:S:1:pos:R:3 #=T CELL(abcABC):=T 1.889726e+02=T 90.00000=T Traj:=T positionsangstrom=T Step:=T 0=T Bead:=T pbc="F F F"
C      -45.63910000     -36.86570000     -74.22770000
C      -46.48780000     -36.07540000     -73.34470000
C      -46.67690000     -34.73250000     -73.73500000
C      -45.88090000     -34.07080000     -74.63840000
C      -44.93310000     -34.84200000     -75.28330000
C      -44.82430000     -36.23860000     -75.11610000
H      -45.67900000     -37.95040000     -73.98900000
H      -47.47210000     -34.14600000     -73.33200000
H      -44.18800000     -34.38830000     -75.96480000
H      -43.89480000     -36.67990000     -75.49200000
C      -46.07160000     -32.68060000     -74.91070000
H      -46.95850000     -32.30010000     -74.36020000
H      -46.24970000     -32.54110000     -76.04070000
C      -47.34510000     -36.72850000     -72.26280000
H      -48.37550000     -36.61720000     -72.54890000
H      -47.03400000     -37.75760000     -72.15120000
S      -44.59400000     -31.52750000     -74.57560000
S      -47.16670000     -35.89700000     -70.67280000
C      -44.28200000     -31.69990000     -72.76460000
H      -43.75090000     -32.57300000     -72.59260000
H      -43.52120000     -30.92230000     -72.49780000
C      -45.34690000     -35.92130000     -70.29590000
H      -44.81470000     -36.72640000     -70.76760000
H      -45.31120000     -36.24910000     -69.23940000
C      -44.62080000     -34.60990000     -70.47330000
H      -43.61420000     -34.93240000     -70.67870000
H      -45.15100000     -34.11590000     -71.29650000
C      -45.53640000     -31.59060000     -71.84440000
H      -46.11550000     -32.47380000     -72.07700000
H      -46.22150000     -30.82400000     -72.22670000
C      -45.29300000     -31.34780000     -70.42590000
C      -45.38980000     -30.05930000     -69.90320000
C      -44.96310000     -32.28300000     -69.41960000
H      -45.73140000     -29.18160000     -70.44010000
C      -44.80380000     -31.63210000     -68.20330000
C      -44.52540000     -33.68390000     -69.32340000
C      -44.08160000     -34.03810000     -68.08070000
S      -44.94340000     -29.90250000     -68.28450000
S      -44.01470000     -32.66310000     -66.95870000
H      -43.69220000     -34.93210000     -67.80030000
