40
Properties=species:S:1:pos:R:3 #=T CELL(abcABC):=T 1.889726e+02=T 90.00000=T Traj:=T positionsangstrom=T Step:=T 0=T Bead:=T pbc="F F F"
C      -43.80530000     -35.44540000     -70.41750000
C      -43.64920000     -34.51980000     -69.39300000
C      -44.71580000     -34.30920000     -68.52700000
C      -45.96880000     -34.84950000     -68.79060000
C      -46.12540000     -35.75280000     -69.85440000
C      -45.02870000     -36.11990000     -70.62820000
H      -42.97880000     -35.62570000     -71.04370000
H      -44.69740000     -33.52630000     -67.79140000
H      -47.09250000     -36.08990000     -70.00520000
H      -45.15450000     -37.00040000     -71.23140000
C      -47.11840000     -34.46480000     -67.98020000
H      -46.83290000     -33.84690000     -67.04310000
H      -47.84480000     -35.28070000     -67.67990000
C      -42.34940000     -33.78350000     -69.14990000
H      -42.33430000     -33.27080000     -68.14470000
H      -41.41900000     -34.29820000     -69.40580000
S      -48.20480000     -33.41190000     -69.16760000
S      -42.08460000     -32.48760000     -70.42220000
C      -47.16720000     -32.07400000     -69.65250000
H      -47.09010000     -31.26570000     -69.01090000
H      -46.07150000     -32.36030000     -69.53720000
C      -43.64930000     -31.42870000     -70.32630000
H      -43.36300000     -30.73710000     -69.57260000
H      -44.51090000     -32.03070000     -70.10480000
C      -44.07570000     -30.80010000     -71.62740000
H      -44.82090000     -30.03530000     -71.55850000
H      -43.30450000     -30.13450000     -72.05180000
C      -47.44930000     -31.58100000     -71.08290000
H      -46.98550000     -30.61190000     -71.26990000
H      -48.48600000     -31.53400000     -71.24940000
C      -46.96860000     -32.53660000     -72.24100000
C      -47.81120000     -33.54950000     -72.78290000
C      -45.65580000     -32.51030000     -72.95410000
H      -48.86950000     -33.63890000     -72.59050000
C      -45.57320000     -33.45470000     -73.96240000
C      -44.40230000     -31.83360000     -72.74370000
C      -43.53700000     -32.16700000     -73.73530000
S      -47.06170000     -34.35420000     -74.16440000
S      -44.09310000     -33.40420000     -74.90570000
H      -42.51740000     -31.71340000     -73.64270000
