40
Properties=species:S:1:pos:R:3 #=T CELL(abcABC):=T 1.889726e+02=T 90.00000=T Traj:=T positionsangstrom=T Step:=T 0=T Bead:=T pbc="F F F"
C      -45.08080000     -32.32590000     -73.76930000
C      -45.94200000     -33.47020000     -74.08090000
C      -45.60580000     -34.76020000     -73.70520000
C      -44.35380000     -35.04910000     -73.07910000
C      -43.48940000     -34.00320000     -72.88770000
C      -43.88070000     -32.64860000     -73.17890000
H      -45.41960000     -31.34540000     -74.02790000
H      -46.14120000     -35.63060000     -74.03480000
H      -42.48940000     -34.22830000     -72.56230000
H      -43.19980000     -31.81380000     -72.99570000
C      -44.06560000     -36.49480000     -72.62860000
H      -43.06190000     -36.90400000     -72.91520000
H      -44.70750000     -37.22590000     -73.17620000
C      -47.21390000     -33.18790000     -74.81630000
H      -47.00500000     -32.46930000     -75.56260000
H      -47.61510000     -34.09540000     -75.32880000
S      -44.41530000     -36.89210000     -70.87490000
S      -48.63580000     -32.84820000     -73.70720000
C      -45.89770000     -35.90540000     -70.54150000
H      -45.97360000     -35.18280000     -71.25350000
H      -46.90070000     -36.48510000     -70.62120000
C      -48.01390000     -31.89380000     -72.21750000
H      -48.96400000     -31.48530000     -71.88200000
H      -47.42870000     -31.10760000     -72.53090000
C      -47.31460000     -32.81160000     -71.15040000
H      -48.19640000     -33.16170000     -70.52080000
H      -46.89340000     -33.57220000     -71.78680000
C      -45.87560000     -35.18010000     -69.19320000
H      -45.56450000     -35.85750000     -68.37410000
H      -46.89380000     -34.82580000     -69.01080000
C      -44.82050000     -33.99620000     -69.22510000
C      -43.67470000     -34.08720000     -68.56450000
C      -45.12240000     -32.64200000     -69.68660000
H      -43.09310000     -35.01530000     -68.39740000
C      -44.13740000     -31.80470000     -69.36320000
C      -46.24580000     -32.05340000     -70.40760000
C      -46.02560000     -30.71970000     -70.50910000
S      -42.74630000     -32.54750000     -68.58940000
S      -44.63340000     -30.12900000     -69.52600000
H      -46.68540000     -29.98230000     -70.87820000
