40
Properties=species:S:1:pos:R:3 #=T CELL(abcABC):=T 1.889726e+02=T 90.00000=T Traj:=T positionsangstrom=T Step:=T 0=T Bead:=T pbc="F F F"
C      -43.32790000     -35.25960000     -70.89250000
C      -43.29370000     -34.19990000     -69.97120000
C      -44.34230000     -33.97960000     -69.12690000
C      -45.57460000     -34.65240000     -69.27180000
C      -45.62510000     -35.83410000     -70.08350000
C      -44.47070000     -36.09190000     -70.93270000
H      -42.48970000     -35.34590000     -71.60370000
H      -44.23470000     -33.28450000     -68.32460000
H      -46.50410000     -36.38110000     -70.17690000
H      -44.59960000     -36.81280000     -71.77480000
C      -46.80880000     -34.38440000     -68.39080000
H      -46.53130000     -34.38250000     -67.30570000
H      -47.51860000     -35.24640000     -68.54590000
C      -41.99970000     -33.51060000     -69.78460000
H      -41.99170000     -33.09780000     -68.77950000
H      -41.23230000     -34.23690000     -69.92400000
S      -47.86630000     -32.91840000     -68.83840000
S      -41.79630000     -32.33920000     -71.27470000
C      -46.83050000     -31.59180000     -69.47470000
H      -46.96120000     -30.73020000     -68.85410000
H      -45.78290000     -31.92530000     -69.58710000
C      -43.27410000     -31.15500000     -70.98170000
H      -42.97330000     -30.19990000     -70.50190000
H      -43.78690000     -31.79930000     -70.26240000
C      -44.00120000     -30.87450000     -72.30850000
H      -44.68970000     -30.02570000     -72.20340000
H      -43.18040000     -30.54730000     -72.88520000
C      -47.32910000     -31.14170000     -70.85020000
H      -46.61870000     -30.38320000     -71.17500000
H      -48.37920000     -30.72730000     -70.78580000
C      -47.23010000     -32.35050000     -71.82830000
C      -48.15460000     -33.35760000     -71.89040000
C      -46.07990000     -32.56380000     -72.69470000
H      -49.13460000     -33.29550000     -71.38330000
C      -46.24360000     -33.80550000     -73.35400000
C      -44.66220000     -32.05620000     -72.97840000
C      -44.05560000     -32.82010000     -74.00200000
S      -47.66290000     -34.68790000     -72.95880000
S      -44.91970000     -34.34980000     -74.30330000
H      -43.08890000     -32.78290000     -74.37230000
