40
Properties=species:S:1:pos:R:3 #=T CELL(abcABC):=T 1.889726e+02=T 90.00000=T Traj:=T positionsangstrom=T Step:=T 0=T Bead:=T pbc="F F F"
C      -43.66440000     -35.22590000     -71.17260000
C      -43.51330000     -34.27530000     -70.12590000
C      -44.51870000     -34.02450000     -69.23500000
C      -45.76470000     -34.63380000     -69.33160000
C      -45.92220000     -35.63340000     -70.35910000
C      -44.91440000     -35.85070000     -71.27880000
H      -42.85700000     -35.38810000     -71.92960000
H      -44.25710000     -33.28150000     -68.52710000
H      -46.91300000     -36.06770000     -70.53610000
H      -45.12950000     -36.53810000     -72.11890000
C      -46.81990000     -34.57190000     -68.17280000
H      -46.36860000     -34.23750000     -67.24500000
H      -47.32260000     -35.46630000     -67.94010000
C      -42.24070000     -33.56490000     -69.87950000
H      -42.19390000     -33.10860000     -68.84740000
H      -41.29730000     -34.18520000     -70.11300000
S      -48.04280000     -33.16410000     -68.56790000
S      -41.78760000     -32.05500000     -71.02240000
C      -46.91880000     -31.76860000     -69.21830000
H      -47.17960000     -30.93100000     -68.55160000
H      -45.83140000     -31.98130000     -69.00190000
C      -43.33030000     -31.12500000     -70.91510000
H      -42.95290000     -30.19150000     -70.39590000
H      -43.96870000     -31.68510000     -70.21350000
C      -43.97550000     -30.79740000     -72.28770000
H      -44.74810000     -29.95810000     -72.12300000
H      -43.19830000     -30.41430000     -73.03220000
C      -47.23380000     -31.37450000     -70.75060000
H      -46.55080000     -30.52260000     -70.99870000
H      -48.24380000     -30.96230000     -70.77400000
C      -46.99300000     -32.38220000     -71.86130000
C      -47.93410000     -33.37610000     -72.00010000
C      -45.82580000     -32.62080000     -72.68760000
H      -48.84520000     -33.55220000     -71.49390000
C      -46.07780000     -33.82320000     -73.47450000
C      -44.49850000     -32.03500000     -72.94330000
C      -43.76870000     -32.79290000     -73.88990000
S      -47.51400000     -34.66650000     -73.13140000
S      -44.64290000     -34.32030000     -74.37180000
H      -42.77170000     -32.63150000     -74.42280000
