40
Properties=species:S:1:pos:R:3 #=T CELL(abcABC):=T 1.889726e+02=T 90.00000=T Traj:=T positionsangstrom=T Step:=T 0=T Bead:=T pbc="F F F"
C      -47.85790000     -34.37790000     -73.21270000
C      -47.74480000     -35.34950000     -72.17320000
C      -48.24290000     -35.01520000     -70.93460000
C      -48.88580000     -33.79460000     -70.66420000
C      -49.16450000     -32.91580000     -71.73720000
C      -48.54400000     -33.15240000     -72.96920000
H      -47.48150000     -34.56260000     -74.19640000
H      -48.01540000     -35.63740000     -70.06930000
H      -49.75670000     -32.00540000     -71.53870000
H      -48.50600000     -32.38390000     -73.71570000
C      -49.20380000     -33.33740000     -69.30090000
H      -49.79180000     -34.03800000     -68.68700000
H      -49.87660000     -32.49600000     -69.37520000
C      -47.06840000     -36.67250000     -72.38080000
H      -47.77770000     -37.44920000     -72.12810000
H      -46.83990000     -36.76230000     -73.48530000
S      -47.73360000     -32.93910000     -68.37140000
S      -45.47150000     -36.91330000     -71.38980000
C      -46.59050000     -32.13690000     -69.57660000
H      -47.18490000     -31.98910000     -70.43270000
H      -46.16710000     -31.16190000     -69.28900000
C      -44.55370000     -35.52630000     -72.23100000
H      -45.19730000     -34.64770000     -72.51360000
H      -44.13470000     -35.91520000     -73.17690000
C      -43.40060000     -35.05780000     -71.36070000
H      -43.67390000     -34.83390000     -70.36310000
H      -42.55810000     -35.69850000     -71.28610000
C      -45.25350000     -32.91810000     -70.03220000
H      -45.68550000     -33.58430000     -70.79800000
H      -44.82170000     -33.45610000     -69.17280000
C      -44.26920000     -31.99940000     -70.66700000
C      -44.23540000     -30.64540000     -70.52670000
C      -43.15400000     -32.48700000     -71.49440000
H      -44.88230000     -30.02100000     -69.92110000
C      -42.37090000     -31.48820000     -72.03520000
C      -42.73970000     -33.78530000     -71.93090000
C      -41.59630000     -33.79220000     -72.68220000
S      -42.87450000     -29.90680000     -71.44400000
S      -41.08520000     -32.09700000     -73.05270000
H      -41.08180000     -34.68990000     -72.94360000
