40
Properties=species:S:1:pos:R:3 #=T CELL(abcABC):=T 1.889726e+02=T 90.00000=T Traj:=T positionsangstrom=T Step:=T 0=T Bead:=T pbc="F F F"
C      -43.67960000     -35.03420000     -71.20900000
C      -43.42470000     -34.30420000     -70.04380000
C      -44.40310000     -33.99910000     -69.09370000
C      -45.66160000     -34.67230000     -69.11500000
C      -45.87870000     -35.51730000     -70.23980000
C      -44.94680000     -35.65410000     -71.29620000
H      -42.88440000     -35.21620000     -71.97560000
H      -44.10560000     -33.46320000     -68.18020000
H      -46.63250000     -36.26690000     -70.28960000
H      -45.18310000     -36.43410000     -72.06000000
C      -46.87730000     -34.46800000     -68.13670000
H      -46.46270000     -34.16800000     -67.16820000
H      -47.43760000     -35.44770000     -68.11530000
C      -42.10430000     -33.65560000     -69.87510000
H      -41.98160000     -33.33060000     -68.84810000
H      -41.40940000     -34.40990000     -70.12510000
S      -48.03800000     -33.19910000     -68.74740000
S      -41.84980000     -32.15500000     -70.98800000
C      -46.94530000     -31.67130000     -69.25820000
H      -47.38180000     -30.81280000     -68.81270000
H      -45.93290000     -31.87190000     -68.89130000
C      -43.38080000     -31.11780000     -70.72360000
H      -43.16520000     -30.22910000     -70.18750000
H      -44.10820000     -31.64410000     -70.18220000
C      -44.08850000     -30.87160000     -72.14510000
H      -44.93650000     -30.18370000     -72.04790000
H      -43.39400000     -30.43420000     -72.85780000
C      -47.13970000     -31.46240000     -70.81730000
H      -46.46400000     -30.71760000     -71.15430000
H      -48.16110000     -30.99470000     -71.00080000
C      -46.93720000     -32.62040000     -71.70580000
C      -47.91250000     -33.56230000     -71.89540000
C      -45.76790000     -32.86210000     -72.55190000
H      -48.89880000     -33.70630000     -71.51520000
C      -45.96940000     -33.97370000     -73.41380000
C      -44.52790000     -32.18000000     -72.76920000
C      -43.77670000     -32.74500000     -73.81760000
S      -47.56080000     -34.66520000     -73.28140000
S      -44.69710000     -33.98090000     -74.64250000
H      -42.91390000     -32.41570000     -74.44940000
