40
Properties=species:S:1:pos:R:3 #=T CELL(abcABC):=T 1.889726e+02=T 90.00000=T Traj:=T positionsangstrom=T Step:=T 0=T Bead:=T pbc="F F F"
C      -41.61840000     -32.97700000     -71.36640000
C      -42.74670000     -33.74740000     -71.55050000
C      -43.76790000     -33.70050000     -70.62510000
C      -43.63530000     -33.15740000     -69.34250000
C      -42.36970000     -32.64690000     -69.02210000
C      -41.50240000     -32.36030000     -70.10350000
H      -41.03660000     -32.69330000     -72.24380000
H      -44.61230000     -34.29520000     -70.88100000
H      -42.17020000     -32.21400000     -68.06590000
H      -40.57580000     -31.76390000     -69.96570000
C      -44.82600000     -33.15600000     -68.44040000
H      -44.61840000     -33.38070000     -67.43410000
H      -45.56120000     -33.88780000     -68.69870000
C      -42.90090000     -34.62310000     -72.78620000
H      -41.99440000     -35.20700000     -73.00170000
H      -43.80460000     -35.21090000     -72.62980000
S      -45.58140000     -31.51000000     -68.39980000
S      -43.25930000     -33.57720000     -74.30470000
C      -45.83340000     -30.98660000     -70.16200000
H      -45.47750000     -29.98750000     -70.26550000
H      -45.19770000     -31.51500000     -70.83580000
C      -44.18550000     -32.05140000     -73.63200000
H      -43.85060000     -31.25490000     -74.30190000
H      -43.82850000     -31.79380000     -72.67060000
C      -45.77290000     -32.13180000     -73.69040000
H      -46.10930000     -31.17070000     -73.28040000
H      -45.95720000     -31.97870000     -74.80990000
C      -47.34700000     -31.23490000     -70.57230000
H      -47.55340000     -30.75610000     -71.53830000
H      -48.00800000     -30.78820000     -69.81690000
C      -47.50680000     -32.68680000     -70.79430000
C      -48.26760000     -33.31210000     -69.89230000
C      -46.99040000     -33.57150000     -71.81790000
H      -48.73640000     -32.96400000     -69.05530000
C      -47.33310000     -34.88630000     -71.54690000
C      -46.32590000     -33.39600000     -73.10060000
C      -46.18890000     -34.61980000     -73.73600000
S      -48.23710000     -35.08040000     -70.09820000
S      -46.89090000     -35.94500000     -72.81720000
H      -45.64470000     -34.76170000     -74.69690000
