40
Properties=species:S:1:pos:R:3 #=T CELL(abcABC):=T 1.889726e+02=T 90.00000=T Traj:=T positionsangstrom=T Step:=T 0=T Bead:=T pbc="F F F"
C      -47.97200000     -34.85560000     -73.34910000
C      -47.75570000     -35.44900000     -72.10380000
C      -48.03970000     -34.71940000     -70.91390000
C      -48.54780000     -33.41250000     -71.01030000
C      -48.81800000     -32.91830000     -72.26560000
C      -48.62660000     -33.68940000     -73.40270000
H      -47.76860000     -35.49120000     -74.17270000
H      -47.81080000     -35.12010000     -69.93190000
H      -49.26030000     -31.92330000     -72.40550000
H      -48.75860000     -33.16600000     -74.40860000
C      -48.73010000     -32.55590000     -69.77940000
H      -49.74980000     -32.42100000     -69.35150000
H      -48.36990000     -31.53590000     -69.95100000
C      -47.05510000     -36.81970000     -72.17910000
H      -47.72810000     -37.60800000     -71.72730000
H      -46.89090000     -37.03140000     -73.24210000
S      -47.66460000     -33.03890000     -68.29810000
S      -45.45700000     -36.97230000     -71.41640000
C      -46.11470000     -31.92050000     -68.59950000
H      -46.51770000     -31.00010000     -68.98910000
H      -45.48740000     -31.76040000     -67.71420000
C      -44.45080000     -35.62190000     -72.14760000
H      -45.05910000     -34.69270000     -72.43350000
H      -43.94860000     -35.93230000     -73.03630000
C      -43.34920000     -35.16060000     -71.20350000
H      -43.70430000     -35.22270000     -70.15000000
H      -42.52820000     -35.85410000     -71.27310000
C      -45.15190000     -32.72390000     -69.52230000
H      -45.69180000     -33.51940000     -70.06050000
H      -44.37570000     -33.19210000     -68.92480000
C      -44.26990000     -31.88340000     -70.42660000
C      -44.24290000     -30.54380000     -70.60150000
C      -43.36350000     -32.55670000     -71.34770000
H      -44.92070000     -29.85560000     -69.97980000
C      -42.77630000     -31.56830000     -72.16530000
C      -42.78520000     -33.84120000     -71.59580000
C      -41.77160000     -33.74530000     -72.51980000
S      -43.11250000     -29.88340000     -71.79440000
S      -41.44270000     -32.17950000     -73.12270000
H      -41.13910000     -34.63090000     -72.70150000
