40
Properties=species:S:1:pos:R:3 #=T CELL(abcABC):=T 1.889726e+02=T 90.00000=T Traj:=T positionsangstrom=T Step:=T 0=T Bead:=T pbc="F F F"
C      -44.94120000     -32.16400000     -73.49620000
C      -46.20760000     -32.69740000     -73.40910000
C      -46.25200000     -34.12750000     -73.42510000
C      -45.14930000     -34.95870000     -73.40030000
C      -43.86910000     -34.38240000     -73.51610000
C      -43.74240000     -33.00860000     -73.56490000
H      -44.86290000     -31.04360000     -73.43200000
H      -47.25270000     -34.60650000     -73.39250000
H      -43.00000000     -35.04270000     -73.67580000
H      -42.80390000     -32.43670000     -73.60730000
C      -45.27960000     -36.46150000     -73.20690000
H      -44.68210000     -37.06750000     -73.84840000
H      -46.27360000     -36.77670000     -73.43300000
C      -47.41740000     -31.83560000     -73.38900000
H      -47.18850000     -30.82510000     -72.98340000
H      -47.66350000     -31.58510000     -74.44430000
S      -44.90960000     -37.00880000     -71.49890000
S      -48.83650000     -32.44810000     -72.49320000
C      -46.09990000     -36.11970000     -70.27710000
H      -46.62370000     -35.34850000     -70.85440000
H      -46.72460000     -37.00770000     -70.00250000
C      -48.50090000     -32.03030000     -70.72410000
H      -49.50290000     -32.18950000     -70.25180000
H      -48.39010000     -30.96510000     -70.72560000
C      -47.32660000     -32.79100000     -70.04730000
H      -47.74930000     -33.27220000     -69.12400000
H      -47.12940000     -33.67160000     -70.59260000
C      -45.38460000     -35.31400000     -69.03990000
H      -44.76300000     -35.91460000     -68.46410000
H      -46.13050000     -34.86980000     -68.37020000
C      -44.40530000     -34.26200000     -69.54090000
C      -43.04700000     -34.42720000     -69.58550000
C      -44.76740000     -32.80410000     -69.78540000
H      -42.59530000     -35.41240000     -69.42250000
C      -43.63430000     -32.02180000     -70.00300000
C      -46.01440000     -32.11850000     -69.83240000
C      -45.80860000     -30.70990000     -70.01000000
S      -42.13930000     -33.02720000     -69.93010000
S      -44.02290000     -30.30890000     -70.09540000
H      -46.56770000     -29.92200000     -70.02190000
