40
Properties=species:S:1:pos:R:3 #=T CELL(abcABC):=T 1.889726e+02=T 90.00000=T Traj:=T positionsangstrom=T Step:=T 0=T Bead:=T pbc="F F F"
C      -41.53130000     -33.29150000     -71.36160000
C      -42.73420000     -34.02440000     -71.57730000
C      -43.70010000     -33.98110000     -70.58130000
C      -43.67640000     -33.06890000     -69.46700000
C      -42.49440000     -32.32400000     -69.31900000
C      -41.41750000     -32.46700000     -70.21310000
H      -40.68330000     -33.31090000     -72.02450000
H      -44.66980000     -34.48690000     -70.79170000
H      -42.41650000     -31.71070000     -68.40150000
H      -40.56960000     -31.80150000     -70.15260000
C      -44.81180000     -33.03860000     -68.45250000
H      -44.38250000     -33.08840000     -67.41400000
H      -45.52500000     -33.87230000     -68.76230000
C      -43.02090000     -34.65740000     -72.95400000
H      -42.06690000     -35.07780000     -73.26400000
H      -43.70260000     -35.54520000     -73.01570000
S      -45.68760000     -31.43510000     -68.48330000
S      -43.36420000     -33.48590000     -74.43490000
C      -45.83410000     -30.86360000     -70.26470000
H      -45.82270000     -29.76580000     -70.33850000
H      -45.08680000     -31.42130000     -70.92940000
C      -44.19790000     -32.04150000     -73.60360000
H      -43.93180000     -31.17380000     -74.25390000
H      -43.82840000     -32.00100000     -72.56410000
C      -45.78500000     -32.17360000     -73.69350000
H      -46.29350000     -31.31170000     -73.21770000
H      -46.15340000     -32.21010000     -74.69110000
C      -47.24030000     -31.17180000     -70.73680000
H      -47.45950000     -30.75410000     -71.69610000
H      -48.03330000     -30.71350000     -70.14680000
C      -47.44800000     -32.63740000     -70.72320000
C      -48.14960000     -33.29780000     -69.77150000
C      -47.09170000     -33.54280000     -71.77380000
H      -48.51740000     -32.85760000     -68.80360000
C      -47.35580000     -34.89120000     -71.46590000
C      -46.37970000     -33.44800000     -73.01130000
C      -46.12660000     -34.67950000     -73.61500000
S      -48.19190000     -35.06580000     -69.89400000
S      -46.77510000     -35.98290000     -72.63390000
H      -45.47270000     -34.84560000     -74.44600000
