40
Properties=species:S:1:pos:R:3 #=T CELL(abcABC):=T 1.889726e+02=T 90.00000=T Traj:=T positionsangstrom=T Step:=T 0=T Bead:=T pbc="F F F"
C      -45.09090000     -31.81890000     -73.66610000
C      -46.26420000     -32.48440000     -73.60400000
C      -46.26150000     -33.85590000     -73.46880000
C      -45.09100000     -34.56840000     -73.40420000
C      -43.89660000     -33.86440000     -73.49150000
C      -43.89420000     -32.48220000     -73.61780000
H      -45.11050000     -30.70200000     -73.79690000
H      -47.29950000     -34.43730000     -73.41730000
H      -42.83020000     -34.36360000     -73.31380000
H      -42.94440000     -31.96070000     -73.66380000
C      -45.07390000     -36.08500000     -73.31210000
H      -44.18070000     -36.40700000     -73.74930000
H      -45.95190000     -36.48190000     -73.94990000
C      -47.52650000     -31.73850000     -73.72040000
H      -47.31890000     -30.57830000     -73.65960000
H      -47.97700000     -32.02760000     -74.72500000
S      -45.06030000     -36.77210000     -71.63640000
S      -48.74130000     -32.37210000     -72.37230000
C      -46.35430000     -36.09140000     -70.49760000
H      -46.69720000     -35.10410000     -70.90090000
H      -47.25230000     -36.81590000     -70.38080000
C      -48.28830000     -31.65290000     -70.78850000
H      -49.28410000     -31.81670000     -70.35210000
H      -48.07700000     -30.61610000     -70.85190000
C      -47.31510000     -32.54140000     -69.90590000
H      -47.79030000     -32.47960000     -68.87140000
H      -47.32310000     -33.53230000     -70.23320000
C      -45.75480000     -35.53690000     -69.14770000
H      -45.26150000     -36.32910000     -68.62190000
H      -46.64740000     -35.36770000     -68.58540000
C      -44.63660000     -34.45880000     -69.25200000
C      -43.33170000     -34.78480000     -69.16170000
C      -44.78590000     -33.10800000     -69.71950000
H      -43.09380000     -35.83060000     -68.90230000
C      -43.55200000     -32.49570000     -69.90190000
C      -45.84400000     -32.19220000     -69.84690000
C      -45.43120000     -30.95350000     -70.18700000
S      -42.21870000     -33.52840000     -69.56240000
S      -43.64220000     -30.78120000     -70.22820000
H      -46.19120000     -30.20530000     -70.36470000
