40
Properties=species:S:1:pos:R:3 #=T CELL(abcABC):=T 1.889726e+02=T 90.00000=T Traj:=T positionsangstrom=T Step:=T 0=T Bead:=T pbc="F F F"
C      -44.96590000     -32.12270000     -73.69320000
C      -46.25040000     -32.70190000     -73.59500000
C      -46.29540000     -34.05110000     -73.30800000
C      -45.16970000     -34.85290000     -73.24830000
C      -43.92170000     -34.28930000     -73.29320000
C      -43.82060000     -32.93100000     -73.52020000
H      -44.89640000     -31.05480000     -73.88120000
H      -47.28810000     -34.51430000     -73.20990000
H      -43.12210000     -34.87570000     -72.94800000
H      -42.83160000     -32.50730000     -73.52320000
C      -45.32510000     -36.39950000     -73.16280000
H      -44.67770000     -36.94850000     -73.83700000
H      -46.42600000     -36.73990000     -73.23240000
C      -47.49010000     -31.85490000     -73.61470000
H      -47.17830000     -30.80860000     -73.47090000
H      -48.01160000     -31.96640000     -74.54410000
S      -44.84570000     -36.94440000     -71.43500000
S      -48.78990000     -32.31540000     -72.36210000
C      -46.06540000     -35.97340000     -70.53790000
H      -46.47900000     -35.19680000     -71.12340000
H      -46.95910000     -36.58900000     -70.29450000
C      -48.41510000     -31.82930000     -70.66350000
H      -49.43800000     -31.93850000     -70.12880000
H      -48.20490000     -30.75520000     -70.63290000
C      -47.40820000     -32.68780000     -69.90590000
H      -47.50650000     -32.69890000     -68.76080000
H      -47.50840000     -33.67310000     -70.31510000
C      -45.40100000     -35.41040000     -69.30860000
H      -45.02090000     -36.19940000     -68.71270000
H      -46.22100000     -34.90880000     -68.64950000
C      -44.42970000     -34.38170000     -69.64280000
C      -43.09970000     -34.58850000     -69.68970000
C      -44.80600000     -32.98660000     -69.83240000
H      -42.50850000     -35.45390000     -69.46040000
C      -43.68760000     -32.18370000     -69.80700000
C      -45.97180000     -32.20340000     -69.99820000
C      -45.65240000     -30.83280000     -70.18550000
S      -42.14820000     -33.05230000     -69.85950000
S      -43.97850000     -30.49920000     -70.06690000
H      -46.35720000     -29.98540000     -70.29880000
