40
Properties=species:S:1:pos:R:3 #=T CELL(abcABC):=T 1.889726e+02=T 90.00000=T Traj:=T positionsangstrom=T Step:=T 0=T Bead:=T pbc="F F F"
C      -48.30440000     -36.73090000     -71.87130000
C      -47.31730000     -36.33630000     -70.87860000
C      -47.52660000     -35.24230000     -70.03980000
C      -48.75920000     -34.60650000     -70.06300000
C      -49.73140000     -34.92390000     -71.03650000
C      -49.48560000     -35.98080000     -71.86710000
H      -48.05140000     -37.49270000     -72.67670000
H      -46.77320000     -34.97480000     -69.35300000
H      -50.77060000     -34.62600000     -70.94470000
H      -50.13770000     -36.10720000     -72.69200000
C      -49.02350000     -33.44140000     -69.12170000
H      -49.47910000     -33.69730000     -68.08840000
H      -49.75080000     -32.78540000     -69.62480000
C      -45.86230000     -36.89840000     -70.83620000
H      -45.23490000     -36.40570000     -70.06260000
H      -45.88670000     -37.95310000     -70.67360000
S      -47.62180000     -32.52100000     -68.38070000
S      -44.90360000     -36.85830000     -72.42590000
C      -46.83550000     -31.64910000     -69.78110000
H      -47.46010000     -31.66150000     -70.60850000
H      -46.75320000     -30.59540000     -69.54000000
C      -44.54000000     -35.07390000     -72.69170000
H      -45.48330000     -34.55930000     -72.40720000
H      -44.31330000     -34.87180000     -73.70410000
C      -43.34550000     -34.60510000     -71.83060000
H      -43.69220000     -34.65660000     -70.68970000
H      -42.62660000     -35.32480000     -72.03040000
C      -45.46750000     -32.25220000     -70.16460000
H      -45.56170000     -33.28020000     -70.50960000
H      -44.84430000     -32.39040000     -69.25000000
C      -44.50860000     -31.44760000     -71.01750000
C      -44.50970000     -30.06320000     -71.00800000
C      -43.30430000     -31.95890000     -71.71040000
H      -45.21330000     -29.36700000     -70.59990000
C      -42.50470000     -30.92040000     -72.23060000
C      -42.81550000     -33.23230000     -72.22370000
C      -41.69620000     -33.15870000     -73.05530000
S      -43.15800000     -29.38070000     -72.01300000
S      -41.23540000     -31.46550000     -73.30490000
H      -41.33780000     -33.96030000     -73.66190000
