40
Properties=species:S:1:pos:R:3 #=T CELL(abcABC):=T 1.889726e+02=T 90.00000=T Traj:=T positionsangstrom=T Step:=T 0=T Bead:=T pbc="F F F"
C      -41.60010000     -33.16700000     -71.52150000
C      -42.72520000     -33.97430000     -71.67910000
C      -43.78850000     -33.73020000     -70.82100000
C      -43.69130000     -32.95290000     -69.67150000
C      -42.46420000     -32.29460000     -69.42780000
C      -41.44600000     -32.47290000     -70.34760000
H      -40.74280000     -33.20250000     -72.21970000
H      -44.70700000     -34.35140000     -70.99350000
H      -42.37250000     -31.84270000     -68.45370000
H      -40.46700000     -32.09610000     -70.12310000
C      -44.82690000     -32.96830000     -68.63550000
H      -44.43240000     -33.19160000     -67.67290000
H      -45.52760000     -33.75930000     -68.90170000
C      -42.92810000     -34.73880000     -72.91440000
H      -42.08180000     -35.41700000     -73.10190000
H      -43.81460000     -35.33040000     -72.91520000
S      -45.49970000     -31.28840000     -68.39840000
S      -43.21710000     -33.44110000     -74.28360000
C      -45.88600000     -30.78160000     -70.12780000
H      -45.66410000     -29.68960000     -70.23310000
H      -45.09890000     -31.18290000     -70.70630000
C      -44.31700000     -32.17960000     -73.57820000
H      -43.97040000     -31.28500000     -74.02490000
H      -44.14370000     -32.03350000     -72.52550000
C      -45.86540000     -32.41020000     -73.80380000
H      -46.22180000     -31.47020000     -73.30420000
H      -46.00800000     -32.46580000     -74.88740000
C      -47.21440000     -31.19640000     -70.77610000
H      -47.13190000     -30.75980000     -71.81590000
H      -48.01480000     -30.67300000     -70.25120000
C      -47.47200000     -32.63320000     -70.76580000
C      -48.20040000     -33.21600000     -69.75100000
C      -47.09690000     -33.61170000     -71.77170000
H      -48.82080000     -32.86650000     -68.86970000
C      -47.29220000     -34.93520000     -71.32840000
C      -46.45450000     -33.60820000     -73.08280000
C      -46.35280000     -34.86450000     -73.68460000
S      -48.22950000     -35.02490000     -69.81020000
S      -46.81910000     -36.13910000     -72.51790000
H      -45.99020000     -35.13430000     -74.63360000
