40
Properties=species:S:1:pos:R:3 #=T CELL(abcABC):=T 1.889726e+02=T 90.00000=T Traj:=T positionsangstrom=T Step:=T 0=T Bead:=T pbc="F F F"
C      -43.34920000     -35.15420000     -70.82860000
C      -42.94260000     -33.91220000     -70.21740000
C      -43.68230000     -33.42170000     -69.10180000
C      -44.77080000     -34.08840000     -68.63160000
C      -45.16910000     -35.27590000     -69.24630000
C      -44.44440000     -35.78090000     -70.32060000
H      -42.79550000     -35.56270000     -71.63010000
H      -43.44990000     -32.47270000     -68.54970000
H      -46.07730000     -35.72790000     -69.00940000
H      -45.00840000     -36.63000000     -70.80700000
C      -45.65070000     -33.47180000     -67.61870000
H      -45.13810000     -32.75160000     -67.02340000
H      -46.10050000     -34.34760000     -67.05980000
C      -41.73090000     -33.10550000     -70.75430000
H      -41.44420000     -32.32840000     -70.03870000
H      -40.95680000     -33.84090000     -70.98660000
S      -47.18420000     -32.57340000     -68.34450000
S      -42.05610000     -32.10380000     -72.33320000
C      -46.71240000     -31.34340000     -69.61000000
H      -46.88810000     -30.35100000     -69.15960000
H      -45.59900000     -31.41170000     -69.69140000
C      -43.65800000     -31.10680000     -71.81830000
H      -43.34230000     -30.04480000     -71.68010000
H      -44.01310000     -31.62060000     -70.88960000
C      -44.61880000     -31.11920000     -72.99100000
H      -45.42170000     -30.36530000     -72.86880000
H      -44.08230000     -30.65420000     -73.87480000
C      -47.49230000     -31.47110000     -70.86870000
H      -47.28420000     -30.65850000     -71.53690000
H      -48.48430000     -31.43780000     -70.63570000
C      -47.40300000     -32.73210000     -71.62210000
C      -48.27510000     -33.75270000     -71.46360000
C      -46.37170000     -33.09640000     -72.65890000
H      -49.16360000     -33.74330000     -70.87280000
C      -46.60530000     -34.33610000     -73.16860000
C      -45.22810000     -32.44370000     -73.37470000
C      -44.56120000     -33.27670000     -74.23710000
S      -47.86640000     -35.16890000     -72.38840000
S      -45.40070000     -34.86170000     -74.32920000
H      -43.70860000     -32.94980000     -74.87400000
