40
Properties=species:S:1:pos:R:3 #=T CELL(abcABC):=T 1.889726e+02=T 90.00000=T Traj:=T positionsangstrom=T Step:=T 0=T Bead:=T pbc="F F F"
C      -48.10940000     -35.98590000     -72.38550000
C      -47.32820000     -35.96630000     -71.22190000
C      -47.61780000     -34.95700000     -70.27700000
C      -48.74730000     -34.11880000     -70.31280000
C      -49.52730000     -34.21150000     -71.45260000
C      -49.16850000     -35.07430000     -72.51450000
H      -47.80510000     -36.56750000     -73.22420000
H      -46.96380000     -34.78140000     -69.42220000
H      -50.53680000     -33.84970000     -71.44920000
H      -49.83910000     -35.17010000     -73.34150000
C      -49.06350000     -33.15200000     -69.16850000
H      -49.68130000     -33.70370000     -68.46860000
H      -49.73230000     -32.41690000     -69.63570000
C      -46.16030000     -36.88040000     -71.04610000
H      -45.58620000     -36.39060000     -70.25170000
H      -46.50630000     -37.91360000     -70.84330000
S      -47.60360000     -32.49270000     -68.17290000
S      -45.18870000     -37.08180000     -72.57550000
C      -46.59660000     -31.51100000     -69.37400000
H      -47.14780000     -31.24370000     -70.29920000
H      -46.32110000     -30.54110000     -68.85830000
C      -44.42040000     -35.43620000     -72.75750000
H      -45.18080000     -34.67350000     -72.96930000
H      -43.75440000     -35.55240000     -73.59910000
C      -43.61530000     -34.82910000     -71.50610000
H      -44.31910000     -34.74820000     -70.72290000
H      -42.87140000     -35.51600000     -71.00270000
C      -45.34780000     -32.29300000     -69.84490000
H      -45.52460000     -33.25610000     -70.39290000
H      -44.67690000     -32.61360000     -68.99290000
C      -44.34720000     -31.50080000     -70.68470000
C      -44.15810000     -30.15700000     -70.62320000
C      -43.30550000     -32.17520000     -71.59620000
H      -44.72770000     -29.38510000     -70.12350000
C      -42.51350000     -31.19350000     -72.15000000
C      -42.98490000     -33.50710000     -72.05530000
C      -42.05110000     -33.56330000     -73.06300000
S      -42.86100000     -29.56030000     -71.67130000
S      -41.45940000     -31.90580000     -73.47490000
H      -41.68990000     -34.40170000     -73.61610000
