40
Properties=species:S:1:pos:R:3 #=T CELL(abcABC):=T 1.889726e+02=T 90.00000=T Traj:=T positionsangstrom=T Step:=T 0=T Bead:=T pbc="F F F"
C      -48.23430000     -35.73150000     -72.55560000
C      -47.48960000     -35.97100000     -71.37650000
C      -47.70470000     -34.97100000     -70.40910000
C      -48.45580000     -33.82240000     -70.55740000
C      -49.18080000     -33.64620000     -71.77050000
C      -49.09830000     -34.66120000     -72.74220000
H      -48.14030000     -36.45990000     -73.42940000
H      -47.27390000     -35.06720000     -69.42360000
H      -49.84130000     -32.73460000     -71.83520000
H      -49.82190000     -34.72300000     -73.57380000
C      -48.93170000     -33.01840000     -69.31450000
H      -49.79610000     -33.42440000     -68.85490000
H      -49.26880000     -32.03850000     -69.68360000
C      -46.61570000     -37.12490000     -71.10770000
H      -46.08090000     -36.98550000     -70.15050000
H      -47.12170000     -38.07380000     -71.07170000
S      -47.49990000     -32.69410000     -68.13050000
S      -45.21570000     -37.09870000     -72.37340000
C      -46.28440000     -31.65500000     -69.12380000
H      -46.89660000     -30.88660000     -69.62850000
H      -45.86790000     -31.15270000     -68.25130000
C      -44.70600000     -35.28950000     -72.63530000
H      -45.64650000     -34.78920000     -72.58990000
H      -44.15660000     -35.13430000     -73.58680000
C      -43.69080000     -34.85130000     -71.59390000
H      -44.19860000     -34.65620000     -70.61000000
H      -43.02930000     -35.74270000     -71.47580000
C      -45.33230000     -32.52860000     -69.93230000
H      -45.80130000     -33.04270000     -70.80020000
H      -44.86080000     -33.16720000     -69.15390000
C      -44.32780000     -31.72490000     -70.72070000
C      -44.20680000     -30.37210000     -70.60770000
C      -43.33920000     -32.23920000     -71.62730000
H      -44.75680000     -29.71560000     -69.91370000
C      -42.59620000     -31.22360000     -72.26010000
C      -42.90860000     -33.56240000     -71.98830000
C      -41.85860000     -33.53300000     -72.93990000
S      -43.09990000     -29.63450000     -71.68860000
S      -41.30470000     -31.85120000     -73.23620000
H      -41.27150000     -34.35160000     -73.35470000
