40
Properties=species:S:1:pos:R:3 #=T CELL(abcABC):=T 1.889726e+02=T 90.00000=T Traj:=T positionsangstrom=T Step:=T 0=T Bead:=T pbc="F F F"
C      -48.20600000     -36.44970000     -71.94370000
C      -47.31600000     -36.11910000     -70.85960000
C      -47.64350000     -35.11720000     -69.93760000
C      -48.84850000     -34.40580000     -70.15640000
C      -49.81070000     -34.80410000     -71.19080000
C      -49.45150000     -35.77440000     -72.12510000
H      -48.01660000     -37.31030000     -72.58490000
H      -46.95600000     -34.83910000     -69.16510000
H      -50.68790000     -34.18430000     -71.40930000
H      -50.01680000     -36.13520000     -72.96500000
C      -49.10800000     -33.25820000     -69.14180000
H      -49.63100000     -33.55490000     -68.29170000
H      -49.77700000     -32.58320000     -69.64120000
C      -46.06230000     -36.93980000     -70.77940000
H      -45.48430000     -36.54370000     -69.94170000
H      -46.20130000     -37.99910000     -70.46090000
S      -47.50380000     -32.58650000     -68.45990000
S      -45.04160000     -36.96910000     -72.33930000
C      -46.64550000     -31.71120000     -69.93450000
H      -47.44700000     -31.77650000     -70.70790000
H      -46.47930000     -30.66180000     -69.54880000
C      -44.43870000     -35.22930000     -72.64730000
H      -45.30780000     -34.62350000     -72.68070000
H      -44.09660000     -35.31080000     -73.71260000
C      -43.38650000     -34.63490000     -71.73120000
H      -43.70910000     -34.59960000     -70.69650000
H      -42.51850000     -35.23170000     -71.72290000
C      -45.39010000     -32.43360000     -70.37340000
H      -45.70720000     -33.22450000     -71.09280000
H      -44.87520000     -32.89250000     -69.49750000
C      -44.40460000     -31.47730000     -70.98130000
C      -44.36060000     -30.12870000     -70.80700000
C      -43.37480000     -31.91980000     -71.80920000
H      -44.94630000     -29.46330000     -70.30870000
C      -42.60560000     -30.93380000     -72.38340000
C      -42.92280000     -33.25510000     -72.23590000
C      -41.82530000     -33.15870000     -73.05720000
S      -42.98700000     -29.40660000     -71.62140000
S      -41.29520000     -31.54440000     -73.42950000
H      -41.27980000     -34.02350000     -73.47240000
