40
Properties=species:S:1:pos:R:3 #=T CELL(abcABC):=T 1.889726e+02=T 90.00000=T Traj:=T positionsangstrom=T Step:=T 0=T Bead:=T pbc="F F F"
C      -48.13590000     -36.32580000     -72.20190000
C      -47.29190000     -36.10520000     -71.08160000
C      -47.46310000     -35.08450000     -70.13350000
C      -48.58950000     -34.31880000     -70.30670000
C      -49.45240000     -34.50140000     -71.33570000
C      -49.24850000     -35.52040000     -72.27060000
H      -47.92340000     -37.14540000     -72.92700000
H      -46.59570000     -35.01020000     -69.46330000
H      -50.32390000     -33.85180000     -71.40660000
H      -49.95890000     -35.49440000     -73.17760000
C      -48.96100000     -33.26890000     -69.26260000
H      -49.45590000     -33.87140000     -68.45320000
H      -49.64250000     -32.55400000     -69.60490000
C      -46.11860000     -37.01470000     -70.84520000
H      -45.52150000     -36.78660000     -69.92540000
H      -46.53490000     -38.01830000     -70.75600000
S      -47.72570000     -32.30710000     -68.33680000
S      -45.09430000     -37.14550000     -72.34180000
C      -46.63100000     -31.58130000     -69.65550000
H      -47.29350000     -31.53730000     -70.53480000
H      -46.36190000     -30.57470000     -69.25420000
C      -44.68400000     -35.31180000     -72.66330000
H      -45.56740000     -34.66640000     -72.49800000
H      -44.46690000     -35.30930000     -73.67720000
C      -43.48050000     -34.83500000     -71.90240000
H      -43.61680000     -34.78310000     -70.85300000
H      -42.61080000     -35.45810000     -72.18620000
C      -45.32240000     -32.38450000     -70.01800000
H      -45.54020000     -33.28270000     -70.66770000
H      -44.75490000     -32.84360000     -69.14950000
C      -44.33820000     -31.50810000     -70.77770000
C      -44.29310000     -30.16670000     -70.66100000
C      -43.47890000     -32.04190000     -71.74850000
H      -44.88360000     -29.54610000     -69.98210000
C      -42.57300000     -31.07100000     -72.24220000
C      -43.11710000     -33.37130000     -72.32250000
C      -42.12300000     -33.22050000     -73.32270000
S      -42.81840000     -29.52000000     -71.50030000
S      -41.38910000     -31.58500000     -73.40990000
H      -41.66810000     -34.02090000     -73.86930000
