40
Properties=species:S:1:pos:R:3 #=T CELL(abcABC):=T 1.889726e+02=T 90.00000=T Traj:=T positionsangstrom=T Step:=T 0=T Bead:=T pbc="F F F"
C      -43.38650000     -34.98540000     -71.63150000
C      -42.88810000     -33.92680000     -70.81010000
C      -43.47910000     -33.69340000     -69.56980000
C      -44.55880000     -34.42270000     -69.12340000
C      -45.04980000     -35.48280000     -69.87730000
C      -44.44960000     -35.78090000     -71.10210000
H      -42.85700000     -35.24820000     -72.56530000
H      -43.15880000     -33.01110000     -68.79090000
H      -45.96680000     -35.97720000     -69.58120000
H      -44.77390000     -36.59230000     -71.72240000
C      -45.22040000     -33.96940000     -67.85990000
H      -44.46420000     -33.50550000     -67.19280000
H      -45.50340000     -34.88480000     -67.28610000
C      -41.65400000     -33.16460000     -71.37890000
H      -41.15770000     -32.84600000     -70.43740000
H      -41.01490000     -33.81020000     -72.04430000
S      -46.75830000     -33.05200000     -68.08360000
S      -42.03620000     -31.71110000     -72.50740000
C      -46.35080000     -31.79450000     -69.36790000
H      -46.00950000     -30.84850000     -68.91280000
H      -45.53510000     -32.04160000     -70.02080000
C      -43.62770000     -30.89980000     -71.86970000
H      -43.51120000     -29.88560000     -71.40570000
H      -43.92320000     -31.49280000     -70.98250000
C      -44.82920000     -30.92730000     -72.87200000
H      -45.61030000     -30.27430000     -72.64160000
H      -44.52010000     -30.59110000     -73.85570000
C      -47.43870000     -31.41750000     -70.40880000
H      -47.30960000     -30.52050000     -70.98730000
H      -48.48800000     -31.33440000     -69.94050000
C      -47.54210000     -32.61340000     -71.32480000
C      -48.38630000     -33.64930000     -70.98640000
C      -46.62610000     -32.89270000     -72.39490000
H      -49.16970000     -33.63390000     -70.21040000
C      -46.86800000     -34.22740000     -72.85030000
C      -45.45500000     -32.29030000     -73.02740000
C      -44.76330000     -33.14760000     -73.88330000
S      -48.14450000     -35.04210000     -72.05220000
S      -45.66490000     -34.67640000     -74.01420000
H      -44.01680000     -32.87510000     -74.56790000
