40
Properties=species:S:1:pos:R:3 #=T CELL(abcABC):=T 1.889726e+02=T 90.00000=T Traj:=T positionsangstrom=T Step:=T 0=T Bead:=T pbc="F F F"
C      -43.31590000     -35.02200000     -71.64690000
C      -42.74960000     -34.00450000     -70.86000000
C      -43.11420000     -33.87100000     -69.46560000
C      -44.21310000     -34.64140000     -68.99230000
C      -44.74990000     -35.58000000     -69.81770000
C      -44.34500000     -35.80110000     -71.10640000
H      -42.83750000     -35.40140000     -72.47810000
H      -42.73410000     -33.17120000     -68.75150000
H      -45.58960000     -36.20260000     -69.49150000
H      -44.81550000     -36.58630000     -71.62270000
C      -44.76940000     -34.27070000     -67.63130000
H      -44.10120000     -33.48960000     -67.26190000
H      -44.98530000     -35.04850000     -66.90930000
C      -41.72250000     -33.05520000     -71.38620000
H      -41.21810000     -32.54250000     -70.59780000
H      -40.96360000     -33.55410000     -72.01220000
S      -46.43420000     -33.48010000     -67.84730000
S      -42.57540000     -31.81610000     -72.59550000
C      -45.96090000     -32.02250000     -68.87910000
H      -45.80150000     -31.13470000     -68.26280000
H      -44.99530000     -32.13840000     -69.39780000
C      -43.94030000     -30.97210000     -71.72690000
H      -43.48310000     -29.99860000     -71.34440000
H      -44.36040000     -31.53130000     -70.90100000
C      -45.13280000     -30.62970000     -72.66790000
H      -45.76670000     -30.07090000     -71.99970000
H      -44.77400000     -30.05830000     -73.50000000
C      -47.06180000     -31.71270000     -69.95680000
H      -46.85680000     -30.71400000     -70.47430000
H      -47.99010000     -31.55350000     -69.40480000
C      -47.22000000     -32.77150000     -71.06070000
C      -47.93480000     -33.90530000     -70.83110000
C      -46.45400000     -32.86130000     -72.29830000
H      -48.48070000     -34.03710000     -69.89900000
C      -46.90480000     -33.97420000     -73.06690000
C      -45.70750000     -31.96060000     -73.13210000
C      -45.57520000     -32.46850000     -74.45290000
S      -47.90330000     -35.10220000     -72.13620000
S      -46.39520000     -34.00050000     -74.69900000
H      -45.11920000     -31.92270000     -75.29530000
