40
Properties=species:S:1:pos:R:3 #=T CELL(abcABC):=T 1.889726e+02=T 90.00000=T Traj:=T positionsangstrom=T Step:=T 0=T Bead:=T pbc="F F F"
C      -41.48330000     -33.15530000     -71.40880000
C      -42.64430000     -33.92240000     -71.68960000
C      -43.65380000     -33.87080000     -70.66950000
C      -43.61510000     -32.98000000     -69.60510000
C      -42.43890000     -32.25830000     -69.38350000
C      -41.31920000     -32.39130000     -70.24610000
H      -40.70210000     -33.03890000     -72.14440000
H      -44.49790000     -34.57370000     -70.75210000
H      -42.49180000     -31.47610000     -68.64840000
H      -40.32750000     -31.96560000     -70.06550000
C      -44.74870000     -32.96960000     -68.61830000
H      -44.42960000     -33.31810000     -67.57900000
H      -45.52740000     -33.71450000     -68.90410000
C      -42.90360000     -34.58350000     -73.01080000
H      -42.00510000     -35.18710000     -73.27480000
H      -43.80720000     -35.20780000     -72.97150000
S      -45.49150000     -31.25860000     -68.44940000
S      -43.25050000     -33.36830000     -74.45880000
C      -45.80770000     -30.67640000     -70.17560000
H      -45.75370000     -29.56240000     -70.10320000
H      -45.02530000     -31.12550000     -70.77480000
C      -44.49620000     -32.21970000     -73.72660000
H      -44.38430000     -31.18370000     -74.22120000
H      -44.36450000     -32.05680000     -72.64610000
C      -45.92110000     -32.55480000     -73.93240000
H      -46.50620000     -31.71230000     -73.70540000
H      -46.22320000     -32.67710000     -74.97300000
C      -47.19360000     -31.14940000     -70.74290000
H      -47.45320000     -30.81260000     -71.76490000
H      -47.93300000     -30.74420000     -70.08090000
C      -47.47180000     -32.64820000     -70.71200000
C      -47.96460000     -33.27020000     -69.57130000
C      -47.04510000     -33.65230000     -71.75150000
H      -48.27750000     -32.77380000     -68.61640000
C      -47.40490000     -34.92170000     -71.29810000
C      -46.43000000     -33.74470000     -73.11470000
C      -46.28850000     -35.02950000     -73.55650000
S      -48.21770000     -34.97390000     -69.78920000
S      -47.08880000     -36.20170000     -72.48720000
H      -45.92600000     -35.39010000     -74.51860000
