40
Properties=species:S:1:pos:R:3 #=T CELL(abcABC):=T 1.889726e+02=T 90.00000=T Traj:=T positionsangstrom=T Step:=T 0=T Bead:=T pbc="F F F"
C      -43.23660000     -34.91770000     -71.39650000
C      -42.72800000     -33.88240000     -70.62150000
C      -43.45450000     -33.36310000     -69.56600000
C      -44.66570000     -34.06020000     -69.15760000
C      -45.09310000     -35.25320000     -69.78300000
C      -44.35390000     -35.62120000     -70.95980000
H      -42.72660000     -35.40340000     -72.23070000
H      -43.09830000     -32.57830000     -68.85560000
H      -45.99930000     -35.67020000     -69.52550000
H      -44.73870000     -36.44410000     -71.62400000
C      -45.35090000     -33.56780000     -67.81210000
H      -44.83640000     -32.76250000     -67.35450000
H      -45.49840000     -34.33400000     -67.05120000
C      -41.59990000     -33.11150000     -71.13780000
H      -41.19920000     -32.50020000     -70.30040000
H      -40.91930000     -33.76880000     -71.62210000
S      -47.12200000     -32.82820000     -68.04060000
S      -41.98010000     -32.02440000     -72.58660000
C      -46.73810000     -31.40490000     -69.17740000
H      -47.15120000     -30.58580000     -68.60440000
H      -45.63230000     -31.20020000     -69.26870000
C      -43.38740000     -31.11110000     -71.87450000
H      -43.01120000     -30.14900000     -71.66850000
H      -43.63550000     -31.73190000     -70.95020000
C      -44.65170000     -31.15740000     -72.77800000
H      -45.44470000     -30.46710000     -72.32210000
H      -44.44050000     -30.69260000     -73.74320000
C      -47.50470000     -31.51060000     -70.48120000
H      -47.12470000     -30.72790000     -71.06890000
H      -48.63150000     -31.37490000     -70.37610000
C      -47.37810000     -32.77370000     -71.29000000
C      -48.42490000     -33.67350000     -71.21790000
C      -46.42460000     -33.07720000     -72.29150000
H      -49.24810000     -33.71970000     -70.48770000
C      -46.66780000     -34.36310000     -72.79380000
C      -45.26350000     -32.52760000     -72.95280000
C      -44.70660000     -33.28120000     -73.97530000
S      -48.18780000     -35.06750000     -72.30380000
S      -45.66470000     -34.86110000     -74.18150000
H      -43.74290000     -33.21470000     -74.38230000
