40
Properties=species:S:1:pos:R:3 #=T CELL(abcABC):=T 1.889726e+02=T 90.00000=T Traj:=T positionsangstrom=T Step:=T 0=T Bead:=T pbc="F F F"
C      -43.36250000     -34.92530000     -71.63400000
C      -42.87120000     -33.88230000     -70.82920000
C      -43.51130000     -33.65270000     -69.60680000
C      -44.52720000     -34.46710000     -69.15110000
C      -44.84050000     -35.65690000     -69.87740000
C      -44.27690000     -35.89210000     -71.13660000
H      -42.96770000     -34.93350000     -72.64130000
H      -43.31530000     -32.68590000     -69.09600000
H      -45.56930000     -36.45790000     -69.47610000
H      -44.56270000     -36.67230000     -71.82380000
C      -45.17300000     -34.10090000     -67.79690000
H      -44.48090000     -33.46860000     -67.23310000
H      -45.39160000     -34.94400000     -67.23770000
C      -41.73490000     -33.02230000     -71.37950000
H      -41.28590000     -32.55550000     -70.52250000
H      -40.98940000     -33.60690000     -71.96040000
S      -46.74810000     -33.11850000     -68.11800000
S      -42.21410000     -31.73790000     -72.56690000
C      -46.19490000     -31.70390000     -69.21270000
H      -45.88640000     -30.91000000     -68.49460000
H      -45.33270000     -32.13070000     -69.67850000
C      -43.76780000     -30.98580000     -71.73340000
H      -43.57010000     -29.93130000     -71.44250000
H      -43.88560000     -31.60230000     -70.87260000
C      -45.01480000     -30.96260000     -72.71730000
H      -45.76020000     -30.36160000     -72.16710000
H      -44.56400000     -30.48160000     -73.60770000
C      -47.26310000     -31.39040000     -70.26310000
H      -46.98220000     -30.43190000     -70.64240000
H      -48.20720000     -31.26160000     -69.85490000
C      -47.34990000     -32.56240000     -71.22560000
C      -48.29340000     -33.54260000     -71.04830000
C      -46.47580000     -32.93050000     -72.29730000
H      -49.08090000     -33.56320000     -70.33110000
C      -46.84770000     -34.18640000     -72.81050000
C      -45.45500000     -32.28770000     -73.10490000
C      -44.99250000     -33.08700000     -74.11080000
S      -48.11830000     -34.98840000     -71.99200000
S      -45.78340000     -34.67090000     -74.16850000
H      -44.29020000     -32.83990000     -74.88610000
