40
Properties=species:S:1:pos:R:3 #=T CELL(abcABC):=T 1.889726e+02=T 90.00000=T Traj:=T positionsangstrom=T Step:=T 0=T Bead:=T pbc="F F F"
C      -43.27870000     -34.82270000     -71.86540000
C      -42.75820000     -33.68890000     -71.17020000
C      -43.21970000     -33.46950000     -69.86820000
C      -44.12950000     -34.32480000     -69.22020000
C      -44.61710000     -35.45850000     -69.90570000
C      -44.19330000     -35.62920000     -71.23570000
H      -42.99130000     -35.13360000     -72.85610000
H      -42.93020000     -32.54460000     -69.32030000
H      -45.44750000     -35.97100000     -69.45030000
H      -44.43290000     -36.58150000     -71.73730000
C      -44.53280000     -34.00290000     -67.80390000
H      -44.05680000     -33.12450000     -67.48280000
H      -44.38500000     -34.83640000     -67.10840000
C      -41.77630000     -32.74710000     -71.78830000
H      -41.24200000     -32.22770000     -70.99020000
H      -41.07440000     -33.33450000     -72.41210000
S      -46.32990000     -33.60950000     -67.68080000
S      -42.55240000     -31.49910000     -72.93540000
C      -46.38180000     -32.02820000     -68.65760000
H      -46.50070000     -31.26020000     -67.84500000
H      -45.35580000     -31.92580000     -69.06580000
C      -43.91760000     -30.92460000     -71.89450000
H      -43.78020000     -30.00590000     -71.33320000
H      -44.14590000     -31.69410000     -71.11640000
C      -45.25410000     -30.70990000     -72.65970000
H      -45.86050000     -30.15040000     -71.93350000
H      -45.09240000     -29.99200000     -73.57440000
C      -47.37370000     -31.89160000     -69.81710000
H      -47.26550000     -30.89670000     -70.18710000
H      -48.33960000     -31.90350000     -69.22570000
C      -47.29180000     -32.96600000     -70.89090000
C      -47.81120000     -34.19500000     -70.53550000
C      -46.68170000     -32.98420000     -72.18650000
H      -48.37040000     -34.53160000     -69.62920000
C      -46.88860000     -34.22060000     -72.84860000
C      -45.90030000     -32.03790000     -73.02410000
C      -45.67360000     -32.60270000     -74.23210000
S      -47.79870000     -35.35250000     -71.87330000
S      -46.28340000     -34.27180000     -74.53880000
H      -44.89930000     -32.18820000     -74.83220000
