40
Properties=species:S:1:pos:R:3 #=T CELL(abcABC):=T 1.889726e+02=T 90.00000=T Traj:=T positionsangstrom=T Step:=T 0=T Bead:=T pbc="F F F"
C      -43.26830000     -35.03740000     -71.89190000
C      -42.75950000     -33.89440000     -71.21010000
C      -43.30950000     -33.55360000     -69.96790000
C      -44.24930000     -34.38790000     -69.29810000
C      -44.71700000     -35.51580000     -70.02880000
C      -44.29800000     -35.74670000     -71.33460000
H      -43.03650000     -35.25260000     -72.89220000
H      -42.84400000     -32.72970000     -69.43870000
H      -45.40980000     -36.25700000     -69.54190000
H      -44.71260000     -36.52590000     -71.96770000
C      -44.72500000     -34.11050000     -67.86320000
H      -43.96600000     -33.52010000     -67.33360000
H      -44.79570000     -35.11020000     -67.34380000
C      -41.79440000     -32.99030000     -71.94780000
H      -40.99280000     -32.58600000     -71.41960000
H      -41.34960000     -33.58150000     -72.76480000
S      -46.36080000     -33.37170000     -67.65200000
S      -42.62950000     -31.52200000     -72.76890000
C      -46.30530000     -31.79760000     -68.70020000
H      -46.58100000     -30.91490000     -68.19940000
H      -45.27750000     -31.50650000     -69.01210000
C      -43.95690000     -30.83620000     -71.57840000
H      -43.60340000     -29.80910000     -71.26570000
H      -43.97610000     -31.42230000     -70.67970000
C      -45.31280000     -30.69230000     -72.37190000
H      -46.01850000     -30.17710000     -71.72080000
H      -45.23540000     -30.01340000     -73.18040000
C      -47.25320000     -31.92800000     -69.86470000
H      -47.17960000     -31.04020000     -70.45700000
H      -48.30840000     -31.90020000     -69.56810000
C      -47.17620000     -33.09490000     -70.85630000
C      -47.76100000     -34.33190000     -70.62650000
C      -46.58320000     -33.02620000     -72.14160000
H      -48.33110000     -34.69230000     -69.77680000
C      -46.81900000     -34.18970000     -72.92170000
C      -45.81740000     -32.05010000     -72.88750000
C      -45.59140000     -32.48000000     -74.16670000
S      -47.65420000     -35.39710000     -71.98720000
S      -46.29630000     -34.06260000     -74.55630000
H      -45.09570000     -31.91290000     -74.92660000
