40
Properties=species:S:1:pos:R:3 #=T CELL(abcABC):=T 1.889726e+02=T 90.00000=T Traj:=T positionsangstrom=T Step:=T 0=T Bead:=T pbc="F F F"
C      -43.61470000     -35.07910000     -71.72130000
C      -43.02820000     -33.98500000     -71.03270000
C      -43.37060000     -33.80210000     -69.65220000
C      -44.39110000     -34.60740000     -69.06110000
C      -45.05970000     -35.54780000     -69.81680000
C      -44.65140000     -35.82440000     -71.12210000
H      -43.38800000     -35.17000000     -72.78590000
H      -42.93210000     -33.03120000     -69.03980000
H      -45.89000000     -36.14900000     -69.46330000
H      -45.17150000     -36.56070000     -71.73660000
C      -44.69670000     -34.26770000     -67.63570000
H      -43.92740000     -33.68380000     -67.15310000
H      -44.81010000     -35.07920000     -66.90540000
C      -41.95650000     -33.14210000     -71.67370000
H      -41.30390000     -32.83020000     -70.83020000
H      -41.36220000     -33.78930000     -72.33250000
S      -46.23850000     -33.37810000     -67.52840000
S      -42.53490000     -31.70660000     -72.81130000
C      -46.09910000     -32.04960000     -68.79110000
H      -46.16800000     -31.09190000     -68.25190000
H      -45.17420000     -32.08940000     -69.32700000
C      -43.69510000     -30.81560000     -71.79540000
H      -43.28650000     -29.81630000     -71.54210000
H      -43.78250000     -31.37970000     -70.87120000
C      -45.12430000     -30.63270000     -72.35160000
H      -45.62670000     -30.07810000     -71.53170000
H      -45.21140000     -29.90250000     -73.15230000
C      -47.20730000     -32.09070000     -69.81710000
H      -47.06420000     -31.12850000     -70.38610000
H      -48.12490000     -32.02720000     -69.30340000
C      -47.06560000     -33.15800000     -70.84640000
C      -47.82190000     -34.31280000     -70.85060000
C      -46.44570000     -32.93190000     -72.16080000
H      -48.41500000     -34.72970000     -70.04140000
C      -46.78360000     -33.97390000     -73.09920000
C      -45.72360000     -31.90220000     -72.90470000
C      -45.42140000     -32.26230000     -74.20490000
S      -47.84640000     -35.16250000     -72.43070000
S      -46.15750000     -33.79350000     -74.67400000
H      -44.80550000     -31.75330000     -74.91800000
