40
Properties=species:S:1:pos:R:3 #=T CELL(abcABC):=T 1.889726e+02=T 90.00000=T Traj:=T positionsangstrom=T Step:=T 0=T Bead:=T pbc="F F F"
C      -46.36380000     -36.46420000     -71.91290000
C      -45.96230000     -36.38810000     -70.54590000
C      -46.84070000     -35.70690000     -69.68430000
C      -47.98610000     -34.99360000     -70.21450000
C      -48.37180000     -35.07710000     -71.54910000
C      -47.53990000     -35.82200000     -72.36600000
H      -45.81220000     -37.14190000     -72.54540000
H      -46.63450000     -35.59290000     -68.59360000
H      -49.28930000     -34.61040000     -71.97760000
H      -47.84350000     -35.98470000     -73.41400000
C      -48.79700000     -34.33110000     -69.05640000
H      -48.71430000     -34.89730000     -68.15860000
H      -49.91990000     -34.32420000     -69.23190000
C      -44.67580000     -37.00750000     -70.03310000
H      -44.40720000     -36.49610000     -69.09030000
H      -44.83810000     -38.03050000     -69.76580000
S      -48.26280000     -32.65400000     -68.45320000
S      -43.26970000     -36.84670000     -71.30930000
C      -47.71030000     -32.04980000     -70.13860000
H      -48.32880000     -32.38790000     -70.94980000
H      -47.83940000     -30.95230000     -70.20010000
C      -43.40180000     -35.16340000     -72.00780000
H      -44.34500000     -34.99740000     -72.52160000
H      -42.51380000     -34.92470000     -72.67950000
C      -43.30900000     -34.01510000     -70.93520000
H      -44.19670000     -34.04820000     -70.29550000
H      -42.40960000     -34.18670000     -70.36260000
C      -46.27230000     -32.45060000     -70.51160000
H      -46.19780000     -33.47550000     -70.88660000
H      -45.66830000     -32.32330000     -69.59830000
C      -45.54780000     -31.52890000     -71.50290000
C      -46.03740000     -30.35170000     -72.05690000
C      -44.18920000     -31.81990000     -71.97900000
H      -46.89890000     -29.84540000     -71.73010000
C      -43.72210000     -30.75730000     -72.81310000
C      -43.13210000     -32.68340000     -71.71110000
C      -41.93960000     -32.39780000     -72.36050000
S      -44.84990000     -29.51360000     -73.04400000
S      -42.14110000     -30.95300000     -73.42340000
H      -41.01440000     -32.90790000     -72.34680000
