40
Properties=species:S:1:pos:R:3 #=T CELL(abcABC):=T 1.889726e+02=T 90.00000=T Traj:=T positionsangstrom=T Step:=T 0=T Bead:=T pbc="F F F"
C      -43.26890000     -34.42250000     -71.95450000
C      -42.70060000     -33.48170000     -71.13020000
C      -42.98190000     -33.47190000     -69.76780000
C      -43.89940000     -34.39990000     -69.25690000
C      -44.46880000     -35.38930000     -70.10310000
C      -44.10130000     -35.46560000     -71.43140000
H      -42.92000000     -34.57100000     -73.03940000
H      -42.49540000     -32.73180000     -69.18010000
H      -45.18510000     -36.11640000     -69.67220000
H      -44.63740000     -36.20790000     -72.01230000
C      -44.46570000     -34.22050000     -67.85680000
H      -43.73590000     -33.57300000     -67.28910000
H      -44.60380000     -35.18220000     -67.40850000
C      -41.79620000     -32.41300000     -71.71750000
H      -41.48680000     -31.80360000     -70.88800000
H      -40.84930000     -32.72220000     -72.15920000
S      -46.12610000     -33.47730000     -67.88450000
S      -42.64910000     -31.47260000     -73.02510000
C      -45.91960000     -32.05190000     -68.98970000
H      -45.54220000     -31.16170000     -68.44330000
H      -45.14780000     -32.35430000     -69.76300000
C      -44.03280000     -30.66860000     -71.99260000
H      -43.81880000     -29.56250000     -71.96320000
H      -43.94680000     -31.07840000     -70.99690000
C      -45.44100000     -30.88070000     -72.61440000
H      -46.31710000     -30.40460000     -72.06160000
H      -45.44330000     -30.32170000     -73.55770000
C      -47.25660000     -31.81150000     -69.77690000
H      -47.09920000     -30.78620000     -70.23500000
H      -48.02700000     -31.71420000     -69.06550000
C      -47.44170000     -32.94600000     -70.78340000
C      -48.25350000     -34.07780000     -70.55470000
C      -46.76800000     -33.10390000     -72.06190000
H      -48.73250000     -34.28100000     -69.62370000
C      -46.99970000     -34.32710000     -72.68080000
C      -45.88830000     -32.33660000     -72.92340000
C      -45.48330000     -33.03690000     -74.04450000
S      -48.15600000     -35.25690000     -71.82630000
S      -46.26330000     -34.63480000     -74.20910000
H      -44.97270000     -32.64260000     -74.95760000
