40
Properties=species:S:1:pos:R:3 #=T CELL(abcABC):=T 1.889726e+02=T 90.00000=T Traj:=T positionsangstrom=T Step:=T 0=T Bead:=T pbc="F F F"
C      -42.96130000     -34.71140000     -71.88110000
C      -42.58060000     -33.49330000     -71.28000000
C      -43.05360000     -33.19860000     -69.96940000
C      -43.94720000     -34.08150000     -69.31400000
C      -44.38420000     -35.28240000     -69.93900000
C      -43.86840000     -35.55240000     -71.21760000
H      -42.64180000     -34.82650000     -72.97880000
H      -42.57870000     -32.34440000     -69.43200000
H      -45.06410000     -36.02130000     -69.52760000
H      -44.08770000     -36.50120000     -71.73850000
C      -44.44900000     -33.88380000     -67.95830000
H      -43.85870000     -33.12050000     -67.48080000
H      -44.40020000     -34.78820000     -67.36840000
C      -41.84590000     -32.51550000     -72.02110000
H      -41.38300000     -31.74000000     -71.32980000
H      -41.07650000     -32.86340000     -72.77370000
S      -46.17200000     -33.16830000     -68.03790000
S      -42.91740000     -31.51530000     -73.29830000
C      -46.14310000     -31.66150000     -69.09910000
H      -46.10820000     -30.77090000     -68.53970000
H      -45.17680000     -31.67850000     -69.67830000
C      -44.19750000     -30.76650000     -72.28120000
H      -43.96110000     -29.67840000     -72.26990000
H      -44.18260000     -31.22500000     -71.32470000
C      -45.65060000     -30.97920000     -72.90230000
H      -46.29610000     -30.35610000     -72.20220000
H      -45.78300000     -30.42270000     -73.85380000
C      -47.47000000     -31.65680000     -69.98470000
H      -47.39650000     -30.81390000     -70.65980000
H      -48.36440000     -31.68370000     -69.29670000
C      -47.46710000     -32.94660000     -70.75430000
C      -48.21570000     -34.04780000     -70.33360000
C      -46.71450000     -33.18310000     -71.97770000
H      -48.83650000     -34.01320000     -69.45680000
C      -46.84530000     -34.53080000     -72.39390000
C      -45.94120000     -32.45540000     -72.94850000
C      -45.55450000     -33.22200000     -73.99580000
S      -48.01790000     -35.43010000     -71.44280000
S      -46.00690000     -34.90140000     -73.86300000
H      -44.86120000     -32.86310000     -74.76410000
