40
Properties=species:S:1:pos:R:3 #=T CELL(abcABC):=T 1.889726e+02=T 90.00000=T Traj:=T positionsangstrom=T Step:=T 0=T Bead:=T pbc="F F F"
C      -43.21430000     -34.41070000     -71.43130000
C      -42.76330000     -33.18670000     -70.89910000
C      -43.26370000     -32.79610000     -69.64450000
C      -44.17880000     -33.56980000     -68.89850000
C      -44.51860000     -34.79480000     -69.43330000
C      -44.05080000     -35.25580000     -70.67490000
H      -42.81200000     -34.74890000     -72.33880000
H      -43.02820000     -31.79120000     -69.31460000
H      -45.22730000     -35.40080000     -68.87910000
H      -44.12960000     -36.33380000     -70.90410000
C      -44.77170000     -33.10640000     -67.58350000
H      -44.19600000     -32.23280000     -67.20890000
H      -44.92160000     -33.91200000     -66.86520000
C      -42.02670000     -32.19100000     -71.77720000
H      -41.77720000     -31.28790000     -71.19010000
H      -40.97570000     -32.44990000     -72.17690000
S      -46.37190000     -32.23950000     -67.72740000
S      -42.89660000     -31.74940000     -73.33960000
C      -46.39100000     -31.43760000     -69.49310000
H      -46.38250000     -30.39820000     -69.41110000
H      -45.45010000     -31.78710000     -70.00700000
C      -44.37340000     -30.89760000     -72.54660000
H      -44.22270000     -29.79820000     -72.66500000
H      -44.27200000     -31.03590000     -71.45610000
C      -45.69140000     -31.29330000     -73.14870000
H      -46.52030000     -30.84510000     -72.56920000
H      -45.82370000     -30.79490000     -74.12700000
C      -47.54060000     -32.00380000     -70.32290000
H      -47.75620000     -31.37780000     -71.16640000
H      -48.50310000     -32.02630000     -69.80820000
C      -47.31130000     -33.37820000     -70.94200000
C      -47.64860000     -34.57530000     -70.38390000
C      -46.69020000     -33.63770000     -72.30340000
H      -47.93320000     -34.67720000     -69.32970000
C      -46.67300000     -34.97000000     -72.69800000
C      -45.92300000     -32.81450000     -73.28180000
C      -45.41630000     -33.51570000     -74.30830000
S      -47.31750000     -36.00330000     -71.44320000
S      -45.99680000     -35.20250000     -74.31100000
H      -45.24600000     -33.07430000     -75.27820000
