40
Properties=species:S:1:pos:R:3 #=T CELL(abcABC):=T 1.889726e+02=T 90.00000=T Traj:=T positionsangstrom=T Step:=T 0=T Bead:=T pbc="F F F"
C      -42.94760000     -34.58820000     -72.08330000
C      -42.59160000     -33.44630000     -71.28040000
C      -43.05760000     -33.22520000     -69.99340000
C      -43.98980000     -34.21280000     -69.46740000
C      -44.21720000     -35.40670000     -70.20360000
C      -43.65830000     -35.62190000     -71.47140000
H      -42.50040000     -34.65720000     -73.11050000
H      -42.82460000     -32.31650000     -69.45420000
H      -44.77450000     -36.18010000     -69.64680000
H      -43.90340000     -36.49410000     -72.07970000
C      -44.49280000     -33.86950000     -68.05470000
H      -43.81550000     -33.24290000     -67.42600000
H      -44.45930000     -34.79470000     -67.42420000
C      -41.76870000     -32.34800000     -71.98170000
H      -41.37210000     -31.76370000     -71.16510000
H      -41.02870000     -32.78870000     -72.61550000
S      -46.20940000     -33.31770000     -67.92870000
S      -42.70050000     -31.42470000     -73.21990000
C      -46.12840000     -31.86390000     -69.07040000
H      -45.99310000     -30.86950000     -68.63810000
H      -45.30640000     -32.05720000     -69.84390000
C      -44.11360000     -30.73760000     -72.17610000
H      -43.99490000     -29.62020000     -72.03500000
H      -43.95240000     -31.13490000     -71.17650000
C      -45.52770000     -30.99920000     -72.80600000
H      -46.33230000     -30.48740000     -72.27090000
H      -45.50100000     -30.62620000     -73.78900000
C      -47.45100000     -31.62240000     -69.93270000
H      -47.38300000     -30.68600000     -70.50690000
H      -48.24720000     -31.41680000     -69.21640000
C      -47.62770000     -32.85640000     -70.79660000
C      -48.31390000     -33.97120000     -70.32270000
C      -46.82150000     -33.17910000     -71.98330000
H      -48.68980000     -34.12250000     -69.32210000
C      -47.02950000     -34.48210000     -72.42630000
C      -45.92100000     -32.50220000     -72.94280000
C      -45.47170000     -33.25250000     -73.98190000
S      -48.11200000     -35.35010000     -71.35860000
S      -46.18880000     -34.90000000     -73.86980000
H      -44.81690000     -32.96920000     -74.76420000
