40
Properties=species:S:1:pos:R:3 #=T CELL(abcABC):=T 1.889726e+02=T 90.00000=T Traj:=T positionsangstrom=T Step:=T 0=T Bead:=T pbc="F F F"
C      -47.10310000     -33.01320000     -73.27020000
C      -47.30650000     -34.01750000     -72.24130000
C      -47.51810000     -33.65540000     -70.92870000
C      -47.50160000     -32.27410000     -70.59830000
C      -47.40980000     -31.31300000     -71.60250000
C      -47.19350000     -31.60680000     -72.93760000
H      -47.08450000     -33.36810000     -74.34660000
H      -47.65400000     -34.49210000     -70.19500000
H      -47.50180000     -30.25750000     -71.25480000
H      -47.19900000     -30.88330000     -73.67540000
C      -47.60630000     -31.86500000     -69.17990000
H      -48.19130000     -32.51200000     -68.59420000
H      -48.14410000     -30.90480000     -68.99400000
C      -47.36110000     -35.49600000     -72.63940000
H      -48.36030000     -35.76320000     -73.01020000
H      -46.71150000     -35.87320000     -73.44570000
S      -45.91510000     -31.47510000     -68.47170000
S      -47.11280000     -36.62690000     -71.14360000
C      -45.11780000     -33.10520000     -68.11390000
H      -45.04380000     -33.23010000     -67.02180000
H      -45.73230000     -33.90980000     -68.50070000
C      -45.27760000     -36.99960000     -71.31490000
H      -45.17210000     -37.29940000     -72.40400000
H      -45.22590000     -37.84250000     -70.67270000
C      -44.33440000     -35.86350000     -70.81430000
H      -44.67170000     -35.50150000     -69.82860000
H      -43.49270000     -36.44220000     -70.38630000
C      -43.70670000     -33.06060000     -68.73310000
H      -43.08490000     -33.96980000     -68.63390000
H      -43.25190000     -32.25930000     -68.20810000
C      -43.68740000     -32.57690000     -70.24930000
C      -43.40000000     -31.28140000     -70.53970000
C      -43.60540000     -33.40340000     -71.47240000
H      -43.45310000     -30.47020000     -69.92190000
C      -43.40850000     -32.63680000     -72.63160000
C      -43.86440000     -34.82840000     -71.77940000
C      -43.80170000     -35.11790000     -73.13470000
S      -43.16230000     -30.97950000     -72.26930000
S      -43.39580000     -33.65940000     -74.09510000
H      -44.01850000     -36.05810000     -73.65570000
