40
Properties=species:S:1:pos:R:3 #=T CELL(abcABC):=T 1.889726e+02=T 90.00000=T Traj:=T positionsangstrom=T Step:=T 0=T Bead:=T pbc="F F F"
C      -43.47680000     -36.31100000     -70.10720000
C      -43.23340000     -35.07130000     -69.36140000
C      -42.57140000     -34.04090000     -70.01020000
C      -42.15610000     -34.22990000     -71.43220000
C      -42.41260000     -35.41710000     -72.09410000
C      -43.10660000     -36.42090000     -71.40460000
H      -44.09550000     -37.08620000     -69.62510000
H      -42.36560000     -33.08570000     -69.49550000
H      -42.16560000     -35.48940000     -73.19290000
H      -43.41660000     -37.25640000     -71.95170000
C      -41.31260000     -33.14510000     -72.09930000
H      -41.31120000     -33.33800000     -73.21160000
H      -40.25500000     -33.15820000     -71.73640000
C      -43.67890000     -34.82840000     -67.90650000
H      -43.31030000     -35.67230000     -67.34210000
H      -43.22220000     -33.87930000     -67.51970000
S      -41.86260000     -31.38590000     -71.78410000
S      -45.48700000     -34.87530000     -67.67490000
C      -43.61480000     -31.11020000     -72.47100000
H      -44.06030000     -30.35660000     -71.71840000
H      -43.58650000     -30.67670000     -73.45410000
C      -46.07010000     -33.72160000     -69.06360000
H      -45.24210000     -32.98970000     -69.33020000
H      -47.00020000     -33.19790000     -68.68100000
C      -46.36370000     -34.49000000     -70.31920000
H      -45.43520000     -34.57050000     -70.88540000
H      -46.72900000     -35.53350000     -70.01720000
C      -44.54390000     -32.41730000     -72.51300000
H      -44.50120000     -32.93100000     -71.56310000
H      -44.04950000     -33.04780000     -73.19180000
C      -45.99300000     -32.18660000     -72.90440000
C      -46.37580000     -31.32910000     -73.88010000
C      -47.15380000     -32.93410000     -72.32840000
H      -45.80960000     -30.79760000     -74.67960000
C      -48.36070000     -32.46910000     -72.78710000
C      -47.33520000     -33.81410000     -71.19280000
C      -48.66450000     -33.98850000     -70.93750000
S      -48.14000000     -31.27450000     -74.08560000
S      -49.77450000     -33.13270000     -72.04180000
H      -49.08560000     -34.66950000     -70.14200000
