40
Properties=species:S:1:pos:R:3 #=T CELL(abcABC):=T 1.889726e+02=T 90.00000=T Traj:=T positionsangstrom=T Step:=T 0=T Bead:=T pbc="F F F"
C      -43.11170000     -34.54390000     -71.25170000
C      -42.84050000     -33.18060000     -70.97670000
C      -43.41580000     -32.71650000     -69.80910000
C      -44.17620000     -33.53220000     -68.93400000
C      -44.48150000     -34.86940000     -69.27200000
C      -43.89150000     -35.35400000     -70.41580000
H      -42.65690000     -35.02660000     -72.16370000
H      -43.26600000     -31.67970000     -69.57820000
H      -44.90810000     -35.54360000     -68.52360000
H      -44.14550000     -36.36500000     -70.73100000
C      -44.70600000     -32.91910000     -67.66150000
H      -44.13940000     -32.00730000     -67.39170000
H      -44.72590000     -33.64710000     -66.80250000
C      -42.08230000     -32.19790000     -71.85670000
H      -41.79810000     -31.25120000     -71.27560000
H      -41.18090000     -32.65120000     -72.16730000
S      -46.53490000     -32.45650000     -67.77890000
S      -42.95760000     -31.59750000     -73.37180000
C      -46.57890000     -31.41530000     -69.28410000
H      -46.94360000     -30.40210000     -68.96810000
H      -45.54560000     -31.12400000     -69.49120000
C      -44.40720000     -30.97960000     -72.57300000
H      -44.35160000     -29.91900000     -72.28610000
H      -44.58470000     -31.53000000     -71.61030000
C      -45.63640000     -31.30040000     -73.47420000
H      -46.46530000     -30.77030000     -73.10160000
H      -45.46770000     -31.11050000     -74.50440000
C      -47.43010000     -31.80540000     -70.55440000
H      -47.17450000     -31.07210000     -71.31880000
H      -48.41230000     -31.66080000     -70.13860000
C      -47.30420000     -33.23620000     -71.11540000
C      -47.57190000     -34.39670000     -70.38390000
C      -46.64880000     -33.56980000     -72.38560000
H      -48.11850000     -34.55820000     -69.48030000
C      -46.71240000     -34.96340000     -72.61520000
C      -45.91420000     -32.85240000     -73.43650000
C      -45.45920000     -33.62860000     -74.46900000
S      -47.25190000     -35.89460000     -71.26740000
S      -45.88770000     -35.39320000     -74.14230000
H      -44.64720000     -33.42490000     -75.14710000
