40
Properties=species:S:1:pos:R:3 #=T CELL(abcABC):=T 1.889726e+02=T 90.00000=T Traj:=T positionsangstrom=T Step:=T 0=T Bead:=T pbc="F F F"
C      -41.68910000     -33.20640000     -73.59900000
C      -42.93620000     -33.76240000     -74.01100000
C      -43.44100000     -34.85290000     -73.25960000
C      -42.86630000     -35.35870000     -72.11680000
C      -41.72340000     -34.67670000     -71.66030000
C      -41.10430000     -33.71730000     -72.43150000
H      -41.14240000     -32.54350000     -74.28020000
H      -44.31770000     -35.37810000     -73.65420000
H      -41.32170000     -34.97980000     -70.73170000
H      -40.17000000     -33.32120000     -72.06630000
C      -43.35790000     -36.60330000     -71.35640000
H      -42.52850000     -37.08630000     -70.87820000
H      -43.74160000     -37.27540000     -72.19920000
C      -43.65530000     -33.36540000     -75.27360000
H      -43.04050000     -32.60760000     -75.85480000
H      -43.75780000     -34.29670000     -75.91020000
S      -44.70800000     -36.35600000     -70.14650000
S      -45.39120000     -32.78060000     -75.12050000
C      -46.00930000     -35.40390000     -71.18500000
H      -45.49300000     -34.42210000     -71.50630000
H      -46.09700000     -36.00800000     -72.05930000
C      -45.62010000     -32.17240000     -73.34450000
H      -45.37230000     -31.11510000     -73.23620000
H      -44.81590000     -32.69930000     -72.88030000
C      -47.02860000     -32.40180000     -72.74000000
H      -47.77980000     -31.94950000     -73.43970000
H      -47.39550000     -33.44030000     -72.61320000
C      -47.25340000     -35.21410000     -70.41950000
H      -47.44300000     -36.11400000     -69.81770000
H      -48.17660000     -35.05850000     -71.02980000
C      -47.20790000     -33.93090000     -69.53910000
C      -47.03670000     -34.03800000     -68.16790000
C      -47.10090000     -32.57580000     -70.02150000
H      -47.07200000     -34.85730000     -67.53980000
C      -47.09030000     -31.71740000     -68.94220000
C      -47.02420000     -31.80920000     -71.34310000
C      -46.78610000     -30.43970000     -71.05280000
S      -47.05220000     -32.38980000     -67.34330000
S      -46.84060000     -29.98460000     -69.36440000
H      -46.57280000     -29.69180000     -71.76490000
