40
Properties=species:S:1:pos:R:3 #=T CELL(abcABC):=T 1.889726e+02=T 90.00000=T Traj:=T positionsangstrom=T Step:=T 0=T Bead:=T pbc="F F F"
C      -42.69700000     -34.38300000     -71.19560000
C      -42.56750000     -32.97360000     -70.93930000
C      -43.27350000     -32.38450000     -69.82310000
C      -44.18810000     -33.16040000     -69.07580000
C      -44.30220000     -34.54350000     -69.43180000
C      -43.50970000     -35.16040000     -70.42570000
H      -42.13000000     -34.90410000     -72.02100000
H      -43.07540000     -31.34260000     -69.58410000
H      -45.13540000     -35.15860000     -69.00430000
H      -43.67110000     -36.26820000     -70.53670000
C      -45.01220000     -32.43330000     -68.07890000
H      -44.58540000     -31.38210000     -67.91080000
H      -44.85980000     -32.91310000     -67.05810000
C      -41.73720000     -32.17950000     -71.90540000
H      -41.21720000     -31.27110000     -71.50090000
H      -40.99540000     -32.94990000     -72.08160000
S      -46.85270000     -32.25080000     -68.28260000
S      -42.71080000     -31.84730000     -73.46370000
C      -46.88190000     -31.22020000     -69.80440000
H      -47.00700000     -30.16640000     -69.66800000
H      -45.87160000     -31.36280000     -70.23590000
C      -44.33840000     -31.03620000     -72.77730000
H      -44.25500000     -29.98950000     -72.94240000
H      -44.16910000     -31.26390000     -71.70720000
C      -45.67710000     -31.65940000     -73.30890000
H      -46.40840000     -31.23580000     -72.69360000
H      -45.75510000     -31.35150000     -74.34520000
C      -47.89710000     -31.81590000     -70.73960000
H      -47.93580000     -31.22050000     -71.66400000
H      -48.87840000     -31.89820000     -70.32940000
C      -47.49960000     -33.26200000     -71.16900000
C      -48.25990000     -34.26770000     -70.60790000
C      -46.56210000     -33.70960000     -72.17030000
H      -49.12980000     -34.25910000     -69.88530000
C      -46.62010000     -35.08770000     -72.22230000
C      -45.72150000     -33.15740000     -73.17400000
C      -45.07330000     -34.11350000     -73.96930000
S      -47.76520000     -35.86110000     -71.16910000
S      -45.48010000     -35.75040000     -73.41210000
H      -44.39270000     -33.98870000     -74.75600000
