40
Properties=species:S:1:pos:R:3 #=T CELL(abcABC):=T 1.889726e+02=T 90.00000=T Traj:=T positionsangstrom=T Step:=T 0=T Bead:=T pbc="F F F"
C      -42.66400000     -34.42340000     -70.96430000
C      -42.74780000     -33.04420000     -70.91800000
C      -43.58590000     -32.42060000     -69.99160000
C      -44.33940000     -33.25320000     -69.08530000
C      -44.23580000     -34.66570000     -69.15710000
C      -43.32900000     -35.21270000     -70.07130000
H      -41.88450000     -34.95910000     -71.58760000
H      -43.71100000     -31.34920000     -69.93190000
H      -44.80250000     -35.31030000     -68.41320000
H      -43.21370000     -36.27610000     -70.22770000
C      -45.02020000     -32.53330000     -67.96980000
H      -44.50000000     -31.63470000     -67.76180000
H      -45.04560000     -33.21120000     -67.11750000
C      -41.90850000     -32.17090000     -71.74900000
H      -41.86690000     -31.13210000     -71.41180000
H      -40.91930000     -32.58770000     -71.93500000
S      -46.79260000     -32.20680000     -68.34000000
S      -42.70910000     -31.77790000     -73.43090000
C      -47.01490000     -31.27990000     -69.96640000
H      -47.40830000     -30.33240000     -69.59880000
H      -46.02880000     -31.10010000     -70.47980000
C      -44.29840000     -30.92430000     -72.92950000
H      -44.35230000     -29.83180000     -73.11540000
H      -44.45130000     -30.94140000     -71.84050000
C      -45.53160000     -31.54790000     -73.58180000
H      -46.50530000     -31.01310000     -73.43440000
H      -45.44040000     -31.53030000     -74.70900000
C      -47.91160000     -31.86140000     -71.01580000
H      -47.79620000     -31.21630000     -71.84430000
H      -49.00350000     -31.83850000     -70.58830000
C      -47.58090000     -33.27320000     -71.23610000
C      -48.20470000     -34.33930000     -70.60450000
C      -46.62340000     -33.71990000     -72.25520000
H      -48.76540000     -34.24030000     -69.64630000
C      -46.70370000     -35.10780000     -72.31590000
C      -45.68400000     -33.08320000     -73.25450000
C      -44.89530000     -34.07760000     -73.87250000
S      -47.61280000     -35.90820000     -71.12420000
S      -45.50830000     -35.68400000     -73.37520000
H      -44.20430000     -33.98890000     -74.66530000
