40
Properties=species:S:1:pos:R:3 #=T CELL(abcABC):=T 1.889726e+02=T 90.00000=T Traj:=T positionsangstrom=T Step:=T 0=T Bead:=T pbc="F F F"
C      -41.94840000     -33.17800000     -72.98170000
C      -42.97460000     -34.00360000     -73.50340000
C      -43.44460000     -35.08140000     -72.74790000
C      -42.98680000     -35.24010000     -71.41340000
C      -42.02860000     -34.35830000     -70.89220000
C      -41.43570000     -33.37910000     -71.70880000
H      -41.45370000     -32.39760000     -73.59030000
H      -44.16270000     -35.73320000     -73.17350000
H      -41.61520000     -34.59630000     -69.84560000
H      -40.61200000     -32.76110000     -71.39460000
C      -43.46120000     -36.50640000     -70.73570000
H      -42.83510000     -36.77190000     -69.86140000
H      -43.47310000     -37.35660000     -71.42360000
C      -43.48560000     -33.86900000     -74.97800000
H      -42.85360000     -33.23560000     -75.59020000
H      -43.38810000     -34.87710000     -75.50810000
S      -45.24380000     -36.24610000     -70.06900000
S      -45.26890000     -33.45730000     -75.03910000
C      -46.18690000     -35.46750000     -71.50300000
H      -45.52840000     -34.64830000     -71.86700000
H      -46.26460000     -36.28310000     -72.28480000
C      -45.55910000     -32.47680000     -73.49530000
H      -45.00280000     -31.50880000     -73.73960000
H      -44.96490000     -32.87760000     -72.64800000
C      -46.99970000     -32.13290000     -73.06100000
H      -47.38110000     -31.26290000     -73.76660000
H      -47.69180000     -32.95570000     -73.18780000
C      -47.47360000     -34.87850000     -71.00590000
H      -48.21310000     -35.58620000     -70.66620000
H      -47.92380000     -34.40910000     -71.92200000
C      -47.17170000     -33.70790000     -70.04570000
C      -46.97400000     -33.98810000     -68.63950000
C      -46.94680000     -32.33580000     -70.37210000
H      -47.14990000     -34.92820000     -68.08990000
C      -46.63610000     -31.57430000     -69.22970000
C      -47.02290000     -31.54060000     -71.62050000
C      -46.87560000     -30.21390000     -71.28770000
S      -46.60810000     -32.49990000     -67.77000000
S      -46.58070000     -29.83990000     -69.58910000
H      -46.84960000     -29.38540000     -72.03950000
