40
Properties=species:S:1:pos:R:3 #=T CELL(abcABC):=T 1.889726e+02=T 90.00000=T Traj:=T positionsangstrom=T Step:=T 0=T Bead:=T pbc="F F F"
C      -46.51040000     -36.72540000     -70.59630000
C      -46.68890000     -35.73930000     -69.57320000
C      -47.69600000     -34.77510000     -69.64870000
C      -48.36830000     -34.67190000     -70.96440000
C      -48.24840000     -35.69290000     -71.96140000
C      -47.32710000     -36.72040000     -71.75320000
H      -45.73400000     -37.53590000     -70.51560000
H      -47.87780000     -34.04030000     -68.82210000
H      -48.83090000     -35.68130000     -72.86360000
H      -47.24970000     -37.46240000     -72.54330000
C      -49.07090000     -33.40660000     -71.34630000
H      -50.15130000     -33.35910000     -71.11690000
H      -48.91930000     -33.23460000     -72.43140000
C      -45.85580000     -35.81230000     -68.28810000
H      -46.30490000     -36.25330000     -67.47040000
H      -44.96370000     -36.44180000     -68.39790000
S      -48.44400000     -31.78280000     -70.71420000
S      -45.07250000     -34.27980000     -67.57490000
C      -46.95050000     -31.33390000     -71.70710000
H      -47.24930000     -30.44410000     -72.32940000
H      -46.17520000     -31.06310000     -71.05830000
C      -43.75660000     -33.77920000     -68.77810000
H      -43.18550000     -34.61790000     -69.09800000
H      -43.15640000     -33.08220000     -68.17550000
C      -44.39740000     -33.16240000     -69.98510000
H      -45.24550000     -33.70150000     -70.38490000
H      -44.78060000     -32.16780000     -69.81970000
C      -46.39530000     -32.47300000     -72.59340000
H      -47.22600000     -32.70940000     -73.32710000
H      -46.29200000     -33.26000000     -71.78110000
C      -45.06960000     -32.11940000     -73.15750000
C      -44.87090000     -31.72090000     -74.45550000
C      -43.78920000     -32.38760000     -72.42680000
H      -45.66820000     -31.40230000     -75.06690000
C      -42.67500000     -31.99060000     -73.20390000
C      -43.44660000     -32.98710000     -71.12240000
C      -42.05860000     -33.24710000     -71.08290000
S      -43.17270000     -31.50670000     -74.83110000
S      -41.20650000     -32.71890000     -72.60030000
H      -41.43520000     -33.59840000     -70.27670000
