40
Properties=species:S:1:pos:R:3 #=T CELL(abcABC):=T 1.889726e+02=T 90.00000=T Traj:=T positionsangstrom=T Step:=T 0=T Bead:=T pbc="F F F"
C      -42.31070000     -33.19550000     -72.56950000
C      -42.79180000     -34.16760000     -73.50150000
C      -43.16420000     -35.43110000     -73.01800000
C      -42.93200000     -35.78640000     -71.67190000
C      -42.27850000     -34.85950000     -70.84430000
C      -42.08290000     -33.58360000     -71.26960000
H      -41.98670000     -32.31770000     -73.10800000
H      -43.49530000     -36.07910000     -73.77820000
H      -42.06540000     -35.13610000     -69.85540000
H      -41.68440000     -32.86180000     -70.51450000
C      -43.55420000     -37.01360000     -71.00820000
H      -42.86020000     -37.54840000     -70.34460000
H      -43.97420000     -37.84910000     -71.70980000
C      -43.15660000     -33.73110000     -74.84710000
H      -42.61590000     -32.92220000     -75.18400000
H      -42.99810000     -34.55650000     -75.54020000
S      -45.06290000     -36.41710000     -70.06530000
S      -44.99090000     -33.39420000     -74.95920000
C      -45.88710000     -35.22940000     -71.27630000
H      -45.25130000     -34.34120000     -71.45270000
H      -45.97330000     -35.70910000     -72.20420000
C      -45.23130000     -32.27070000     -73.56120000
H      -44.97790000     -31.31430000     -73.97860000
H      -44.54270000     -32.44790000     -72.76960000
C      -46.66340000     -32.21900000     -73.02720000
H      -47.30700000     -31.66890000     -73.76670000
H      -46.87710000     -33.33340000     -72.94830000
C      -47.29550000     -34.79160000     -70.82470000
H      -47.76230000     -35.65840000     -70.26760000
H      -47.99520000     -34.48330000     -71.58620000
C      -47.18320000     -33.60980000     -69.93660000
C      -47.22830000     -33.67970000     -68.55730000
C      -46.99200000     -32.23360000     -70.42380000
H      -47.58240000     -34.54250000     -68.02580000
C      -47.00780000     -31.33810000     -69.40010000
C      -46.66550000     -31.61500000     -71.65910000
C      -46.46490000     -30.26670000     -71.47830000
S      -47.20400000     -32.12560000     -67.76550000
S      -46.74930000     -29.67330000     -69.84800000
H      -46.29230000     -29.59410000     -72.26530000
