40
Properties=species:S:1:pos:R:3 #=T CELL(abcABC):=T 1.889726e+02=T 90.00000=T Traj:=T positionsangstrom=T Step:=T 0=T Bead:=T pbc="F F F"
C      -42.14080000     -33.09040000     -72.99950000
C      -42.87600000     -34.09760000     -73.65220000
C      -43.26880000     -35.24890000     -72.92910000
C      -42.91990000     -35.41120000     -71.59080000
C      -42.19790000     -34.42350000     -70.96520000
C      -41.80920000     -33.24470000     -71.65780000
H      -41.83060000     -32.17540000     -73.50330000
H      -43.63500000     -36.16010000     -73.40290000
H      -41.91010000     -34.52290000     -69.89720000
H      -41.23910000     -32.51870000     -71.14300000
C      -43.40730000     -36.61280000     -70.81350000
H      -42.80970000     -36.65150000     -69.84650000
H      -43.43610000     -37.55540000     -71.37630000
C      -43.35210000     -33.76560000     -75.03120000
H      -42.89050000     -32.83150000     -75.38450000
H      -43.25940000     -34.55700000     -75.72490000
S      -45.20950000     -36.57190000     -70.06610000
S      -45.21040000     -33.40440000     -74.84670000
C      -46.21180000     -35.78400000     -71.41390000
H      -45.64490000     -35.11860000     -72.02980000
H      -46.65360000     -36.51050000     -72.10830000
C      -45.22270000     -32.26970000     -73.38380000
H      -44.84470000     -31.34870000     -73.72380000
H      -44.80030000     -32.70380000     -72.49250000
C      -46.69440000     -32.06040000     -72.99930000
H      -47.30570000     -31.50020000     -73.70050000
H      -47.18340000     -33.00700000     -73.00400000
C      -47.37870000     -34.96220000     -70.80760000
H      -48.00960000     -35.63730000     -70.25110000
H      -48.04540000     -34.61110000     -71.66290000
C      -47.03740000     -33.74610000     -69.98190000
C      -47.09400000     -33.85980000     -68.55940000
C      -46.87290000     -32.33450000     -70.42150000
H      -47.07200000     -34.85930000     -68.18720000
C      -46.86570000     -31.45900000     -69.30040000
C      -46.76630000     -31.53470000     -71.62930000
C      -46.67890000     -30.18560000     -71.40490000
S      -46.83820000     -32.31230000     -67.77600000
S      -46.75150000     -29.69160000     -69.68790000
H      -46.73050000     -29.42080000     -72.22830000
