40
Properties=species:S:1:pos:R:3 #=T CELL(abcABC):=T 1.889726e+02=T 90.00000=T Traj:=T positionsangstrom=T Step:=T 0=T Bead:=T pbc="F F F"
C      -42.05810000     -33.21600000     -72.80400000
C      -42.75740000     -34.14310000     -73.59490000
C      -43.12740000     -35.37200000     -72.94630000
C      -42.97450000     -35.62800000     -71.57880000
C      -42.39890000     -34.59540000     -70.79340000
C      -41.94250000     -33.41600000     -71.37230000
H      -41.82490000     -32.29520000     -73.27640000
H      -43.84810000     -35.97390000     -73.50530000
H      -42.35970000     -34.60110000     -69.74040000
H      -41.50810000     -32.63220000     -70.76560000
C      -43.54570000     -36.89430000     -70.98590000
H      -42.83170000     -37.34410000     -70.35800000
H      -43.70350000     -37.61530000     -71.77210000
C      -43.29360000     -33.89910000     -74.96920000
H      -42.77860000     -32.95740000     -75.42420000
H      -43.08970000     -34.75510000     -75.60630000
S      -45.08210000     -36.49430000     -70.07290000
S      -45.05870000     -33.43480000     -75.01140000
C      -46.00920000     -35.60220000     -71.39430000
H      -45.27300000     -34.95000000     -71.93390000
H      -46.35700000     -36.37580000     -72.11910000
C      -45.25250000     -32.30370000     -73.56310000
H      -44.81730000     -31.32380000     -73.83940000
H      -44.58130000     -32.65100000     -72.66580000
C      -46.71550000     -32.12080000     -73.03520000
H      -47.37110000     -31.60800000     -73.69730000
H      -47.16970000     -33.12190000     -72.89550000
C      -47.24560000     -34.80320000     -70.86550000
H      -48.00300000     -35.49650000     -70.43900000
H      -47.66280000     -34.53860000     -71.80040000
C      -46.99430000     -33.63210000     -69.93640000
C      -47.16090000     -33.74170000     -68.53010000
C      -46.79770000     -32.20640000     -70.30110000
H      -47.41440000     -34.67770000     -68.06690000
C      -46.88170000     -31.32960000     -69.28140000
C      -46.78250000     -31.53290000     -71.60440000
C      -46.81800000     -30.16080000     -71.46860000
S      -47.12830000     -32.17570000     -67.78450000
S      -46.75410000     -29.66680000     -69.68610000
H      -46.73690000     -29.36970000     -72.24390000
