40
Properties=species:S:1:pos:R:3 #=T CELL(abcABC):=T 1.889726e+02=T 90.00000=T Traj:=T positionsangstrom=T Step:=T 0=T Bead:=T pbc="F F F"
C      -42.97080000     -33.86570000     -70.31330000
C      -43.21270000     -32.47820000     -70.10100000
C      -44.26500000     -32.11130000     -69.23890000
C      -45.09690000     -32.98700000     -68.56380000
C      -44.85450000     -34.35810000     -68.85000000
C      -43.83260000     -34.78390000     -69.71860000
H      -42.27750000     -34.25490000     -71.03550000
H      -44.46240000     -31.04880000     -69.11800000
H      -45.52890000     -35.09860000     -68.39670000
H      -43.64670000     -35.88130000     -69.79160000
C      -46.32030000     -32.67260000     -67.67880000
H      -46.12460000     -31.77360000     -67.05110000
H      -46.61310000     -33.48830000     -66.98430000
C      -42.36730000     -31.40040000     -70.79660000
H      -42.66750000     -30.49170000     -70.32320000
H      -41.31870000     -31.45860000     -70.67440000
S      -47.91370000     -32.75810000     -68.66580000
S      -42.84250000     -31.19250000     -72.55020000
C      -47.61240000     -31.83390000     -70.18320000
H      -48.14930000     -30.88930000     -70.27190000
H      -46.51540000     -31.50100000     -70.31030000
C      -44.70320000     -30.97270000     -72.47440000
H      -45.03470000     -29.96000000     -72.24250000
H      -44.91760000     -31.58130000     -71.56260000
C      -45.52390000     -31.54000000     -73.62450000
H      -46.54010000     -31.17110000     -73.45960000
H      -45.04830000     -31.02910000     -74.53190000
C      -48.00540000     -32.66680000     -71.36080000
H      -47.86940000     -32.08500000     -72.26490000
H      -49.06320000     -32.92270000     -71.27020000
C      -47.17130000     -33.92650000     -71.63360000
C      -47.45970000     -35.13570000     -71.14750000
C      -45.99000000     -33.94690000     -72.64350000
H      -48.24860000     -35.34830000     -70.41580000
C      -45.54260000     -35.19030000     -72.78910000
C      -45.47610000     -33.05880000     -73.68540000
C      -44.52100000     -33.68160000     -74.41320000
S      -46.33950000     -36.35250000     -71.78920000
S      -44.28620000     -35.37710000     -74.02280000
H      -43.81410000     -33.13420000     -75.02670000
