40
Properties=species:S:1:pos:R:3 #=T CELL(abcABC):=T 1.889726e+02=T 90.00000=T Traj:=T positionsangstrom=T Step:=T 0=T Bead:=T pbc="F F F"
C      -42.88480000     -29.35120000     -71.53870000
C      -43.98140000     -29.98740000     -70.85360000
C      -45.04410000     -30.48600000     -71.64110000
C      -44.88160000     -30.60660000     -73.08900000
C      -43.67310000     -30.17080000     -73.68010000
C      -42.70460000     -29.53070000     -72.87670000
H      -42.13430000     -28.83550000     -70.90980000
H      -45.87190000     -31.02980000     -71.17640000
H      -43.51270000     -30.28230000     -74.75960000
H      -41.96090000     -28.86570000     -73.37630000
C      -46.00690000     -31.13940000     -73.87180000
H      -46.26640000     -30.64520000     -74.78830000
H      -46.94070000     -31.25390000     -73.35760000
C      -43.92240000     -29.85410000     -69.30820000
H      -43.25790000     -29.07280000     -68.97290000
H      -44.88250000     -29.50340000     -69.03460000
S      -45.62200000     -32.93740000     -74.57750000
S      -43.47160000     -31.42440000     -68.34210000
C      -44.39100000     -33.47420000     -73.27850000
H      -43.37180000     -33.15630000     -73.64190000
H      -44.60590000     -32.84630000     -72.34280000
C      -44.86980000     -32.59650000     -68.74070000
H      -45.63540000     -32.01000000     -69.27820000
H      -45.29900000     -32.91140000     -67.80440000
C      -44.47070000     -33.87790000     -69.50750000
H      -44.16640000     -33.65000000     -70.56820000
H      -43.58090000     -34.19370000     -68.99590000
C      -44.48650000     -34.93590000     -73.02390000
H      -43.58350000     -35.31480000     -72.55420000
H      -44.54850000     -35.62700000     -73.97030000
C      -45.67780000     -35.53180000     -72.31720000
C      -46.53300000     -36.39210000     -73.03110000
C      -46.00840000     -35.52910000     -70.88310000
H      -46.51180000     -36.55110000     -74.07020000
C      -46.98090000     -36.45020000     -70.61480000
C      -45.54500000     -34.90000000     -69.60530000
C      -46.31700000     -35.32550000     -68.56500000
S      -47.70180000     -37.23140000     -72.03030000
S      -47.53350000     -36.58420000     -68.98680000
H      -45.96720000     -35.03310000     -67.55550000
