40
Properties=species:S:1:pos:R:3 #=T CELL(abcABC):=T 1.889726e+02=T 90.00000=T Traj:=T positionsangstrom=T Step:=T 0=T Bead:=T pbc="F F F"
C      -42.73880000     -33.64610000     -70.05440000
C      -43.28020000     -32.31340000     -70.00530000
C      -44.45780000     -32.08790000     -69.33980000
C      -45.13490000     -33.19520000     -68.75760000
C      -44.58270000     -34.45760000     -68.75220000
C      -43.38780000     -34.69110000     -69.46480000
H      -41.70890000     -33.60730000     -70.34460000
H      -44.88710000     -31.10340000     -69.16570000
H      -45.13790000     -35.23190000     -68.23120000
H      -42.88470000     -35.70590000     -69.41740000
C      -46.35580000     -32.90270000     -67.97310000
H      -46.37410000     -31.99020000     -67.29370000
H      -46.48570000     -33.78630000     -67.36070000
C      -42.56790000     -31.12190000     -70.61600000
H      -42.84270000     -30.15550000     -70.00370000
H      -41.45480000     -31.24440000     -70.67700000
S      -47.95020000     -32.93850000     -69.03040000
S      -42.90530000     -30.92170000     -72.48360000
C      -47.76690000     -31.91570000     -70.52290000
H      -48.45820000     -31.10680000     -70.54680000
H      -46.74480000     -31.51040000     -70.67540000
C      -44.71240000     -30.57200000     -72.55940000
H      -44.83750000     -29.55430000     -72.92170000
H      -45.16380000     -30.67790000     -71.58970000
C      -45.42100000     -31.56250000     -73.49990000
H      -46.47760000     -31.37270000     -73.39920000
H      -45.14330000     -31.25060000     -74.49780000
C      -48.20790000     -32.78510000     -71.75110000
H      -48.33510000     -32.14080000     -72.60010000
H      -49.17460000     -33.11830000     -71.47970000
C      -47.36420000     -33.99190000     -72.09970000
C      -47.82100000     -35.21900000     -71.65790000
C      -46.12990000     -34.08750000     -72.78490000
H      -48.73030000     -35.31650000     -71.09760000
C      -45.55700000     -35.31730000     -72.75260000
C      -45.21310000     -33.06710000     -73.31260000
C      -44.03990000     -33.65470000     -73.67920000
S      -46.61700000     -36.47850000     -71.98250000
S      -43.97380000     -35.38240000     -73.37540000
H      -43.16900000     -33.19770000     -74.01790000
