40
Properties=species:S:1:pos:R:3 #=T CELL(abcABC):=T 1.889726e+02=T 90.00000=T Traj:=T positionsangstrom=T Step:=T 0=T Bead:=T pbc="F F F"
C      -43.47720000     -36.47860000     -70.09800000
C      -43.10300000     -35.38060000     -69.37650000
C      -42.35500000     -34.29820000     -69.96350000
C      -42.11030000     -34.29720000     -71.28180000
C      -42.47660000     -35.42490000     -72.16130000
C      -43.18170000     -36.48320000     -71.51520000
H      -44.00040000     -37.35700000     -69.74580000
H      -42.09770000     -33.39750000     -69.38790000
H      -42.35450000     -35.47100000     -73.23250000
H      -43.52490000     -37.29780000     -72.13670000
C      -41.41430000     -33.12200000     -71.92690000
H      -41.25650000     -33.15510000     -73.03650000
H      -40.31160000     -33.12660000     -71.57900000
C      -43.52960000     -35.14900000     -67.95150000
H      -43.53140000     -36.05910000     -67.32150000
H      -42.89140000     -34.46380000     -67.41750000
S      -42.11780000     -31.48950000     -71.41860000
S      -45.39680000     -34.73250000     -67.78210000
C      -43.51930000     -31.34390000     -72.60120000
H      -44.09750000     -30.52300000     -72.34620000
H      -43.11830000     -31.28040000     -73.60290000
C      -46.10180000     -33.81330000     -69.23470000
H      -45.32700000     -33.03590000     -69.50010000
H      -46.95140000     -33.19470000     -68.97550000
C      -46.54720000     -34.65240000     -70.48480000
H      -45.58760000     -34.78450000     -71.02840000
H      -47.00530000     -35.62400000     -70.20740000
C      -44.53860000     -32.58180000     -72.42480000
H      -44.38750000     -32.80680000     -71.34590000
H      -44.22020000     -33.56930000     -72.89180000
C      -45.97560000     -32.19660000     -72.83200000
C      -46.23290000     -31.34260000     -73.95440000
C      -47.18270000     -32.75030000     -72.17870000
H      -45.48600000     -30.68530000     -74.32420000
C      -48.28830000     -32.30010000     -72.88220000
C      -47.48910000     -33.80030000     -71.28630000
C      -48.88030000     -33.90930000     -71.10380000
S      -47.97070000     -30.96280000     -73.97540000
S      -49.78970000     -32.87560000     -72.21920000
H      -49.38350000     -34.56930000     -70.43140000
