40
Properties=species:S:1:pos:R:3 #=T CELL(abcABC):=T 1.889726e+02=T 90.00000=T Traj:=T positionsangstrom=T Step:=T 0=T Bead:=T pbc="F F F"
C      -43.12720000     -29.49320000     -71.08610000
C      -44.40760000     -30.07050000     -70.79170000
C      -45.20370000     -30.56290000     -71.82490000
C      -44.69670000     -30.64170000     -73.12470000
C      -43.50880000     -30.02870000     -73.45030000
C      -42.70030000     -29.43470000     -72.43300000
H      -42.50860000     -29.10810000     -70.28320000
H      -46.12080000     -31.11910000     -71.63420000
H      -43.20630000     -29.99610000     -74.48900000
H      -41.73810000     -28.97240000     -72.61570000
C      -45.53530000     -31.31100000     -74.14600000
H      -45.61840000     -30.81240000     -75.15860000
H      -46.59130000     -31.46310000     -73.72690000
C      -44.79540000     -30.17170000     -69.34530000
H      -44.77010000     -29.20430000     -68.83410000
H      -45.83730000     -30.59290000     -69.27000000
S      -44.81020000     -32.98200000     -74.61220000
S      -43.67540000     -31.42200000     -68.59160000
C      -44.44090000     -33.54380000     -72.90840000
H      -43.59180000     -32.96120000     -72.45670000
H      -45.30880000     -33.09080000     -72.40240000
C      -44.80130000     -32.80960000     -68.41910000
H      -45.88980000     -32.40850000     -68.44050000
H      -44.56550000     -33.21330000     -67.44640000
C      -44.62630000     -33.79940000     -69.57630000
H      -44.52200000     -33.16760000     -70.47150000
H      -43.74510000     -34.43820000     -69.50260000
C      -44.13370000     -35.06390000     -72.58770000
H      -43.35740000     -35.01160000     -71.72550000
H      -43.68110000     -35.60190000     -73.44560000
C      -45.40490000     -35.78980000     -72.18890000
C      -45.97410000     -36.80540000     -72.89970000
C      -46.17240000     -35.46820000     -70.97580000
H      -45.71990000     -37.24890000     -73.82190000
C      -47.29750000     -36.27500000     -70.78360000
C      -45.83550000     -34.68600000     -69.81080000
C      -46.71650000     -34.87110000     -68.77220000
S      -47.46390000     -37.40370000     -72.12670000
S      -47.95770000     -36.05240000     -69.20500000
H      -46.83160000     -34.28040000     -67.89740000
