40
Properties=species:S:1:pos:R:3 #=T CELL(abcABC):=T 1.889726e+02=T 90.00000=T Traj:=T positionsangstrom=T Step:=T 0=T Bead:=T pbc="F F F"
C      -42.68960000     -33.04690000     -69.76260000
C      -43.35550000     -31.83540000     -69.90130000
C      -44.66170000     -31.68540000     -69.41170000
C      -45.25300000     -32.74310000     -68.85160000
C      -44.60100000     -33.99750000     -68.70310000
C      -43.30670000     -34.17890000     -69.18370000
H      -41.56970000     -33.14690000     -70.11800000
H      -45.07050000     -30.72730000     -69.22130000
H      -45.10000000     -34.81060000     -68.26570000
H      -42.78610000     -35.11870000     -69.07650000
C      -46.61630000     -32.50900000     -68.26150000
H      -46.73750000     -31.47710000     -68.01230000
H      -46.75860000     -33.18430000     -67.38930000
C      -42.68610000     -30.55720000     -70.49800000
H      -42.83610000     -29.58650000     -69.95890000
H      -41.60920000     -30.83760000     -70.37360000
S      -48.14060000     -32.87930000     -69.33940000
S      -43.03870000     -30.28380000     -72.32110000
C      -47.80690000     -31.91880000     -70.87110000
H      -48.46560000     -31.09000000     -70.96220000
H      -46.77320000     -31.36810000     -70.70090000
C      -44.66970000     -31.02000000     -72.55660000
H      -45.32340000     -30.28730000     -73.04050000
H      -45.22550000     -31.11260000     -71.58180000
C      -44.67340000     -32.25100000     -73.50810000
H      -45.57490000     -32.36040000     -74.13370000
H      -43.83430000     -32.10510000     -74.21490000
C      -47.83080000     -32.68710000     -72.19350000
H      -47.36650000     -31.97060000     -72.97740000
H      -48.90020000     -32.85820000     -72.58400000
C      -47.17400000     -34.02210000     -72.36450000
C      -47.97700000     -35.12180000     -72.29090000
C      -45.81430000     -34.39180000     -72.69480000
H      -48.99670000     -34.85890000     -71.92800000
C      -45.63950000     -35.75930000     -72.61340000
C      -44.58090000     -33.65120000     -72.93570000
C      -43.48850000     -34.46760000     -72.99740000
S      -47.14340000     -36.69050000     -72.36840000
S      -43.92320000     -36.17920000     -72.76210000
H      -42.46060000     -34.12740000     -73.16470000
