40
Properties=species:S:1:pos:R:3 #=T CELL(abcABC):=T 1.889726e+02=T 90.00000=T Traj:=T positionsangstrom=T Step:=T 0=T Bead:=T pbc="F F F"
C      -43.11950000     -33.04480000     -69.83060000
C      -43.57160000     -31.73670000     -69.72940000
C      -44.81410000     -31.42730000     -69.15900000
C      -45.70200000     -32.47940000     -68.86700000
C      -45.22940000     -33.78340000     -69.13160000
C      -43.99870000     -34.07600000     -69.63030000
H      -42.22800000     -33.31160000     -70.35730000
H      -45.16310000     -30.41670000     -69.15020000
H      -45.97770000     -34.57180000     -68.96040000
H      -43.77870000     -35.13120000     -69.83290000
C      -47.10880000     -32.23490000     -68.38100000
H      -47.33880000     -31.19750000     -68.22260000
H      -47.37380000     -32.84590000     -67.48510000
C      -42.75560000     -30.61790000     -70.41610000
H      -43.02300000     -29.58620000     -70.15160000
H      -41.69830000     -30.75020000     -70.16210000
S      -48.37400000     -32.89380000     -69.60750000
S      -42.66620000     -31.13810000     -72.23360000
C      -47.96690000     -31.93970000     -71.13620000
H      -48.59750000     -31.06730000     -71.37910000
H      -46.93930000     -31.59390000     -70.93600000
C      -44.45100000     -31.11720000     -72.71760000
H      -44.76650000     -30.05310000     -72.93310000
H      -45.03690000     -31.49200000     -71.83650000
C      -44.82720000     -32.10960000     -73.84510000
H      -45.79740000     -31.85130000     -74.24920000
H      -44.04910000     -31.96450000     -74.63150000
C      -48.06660000     -32.95400000     -72.34900000
H      -47.76720000     -32.35110000     -73.20330000
H      -49.14900000     -33.22210000     -72.43850000
C      -47.12470000     -34.14180000     -72.20610000
C      -47.59650000     -35.26230000     -71.62140000
C      -45.75130000     -34.28480000     -72.61020000
H      -48.55710000     -35.50870000     -71.19700000
C      -45.25260000     -35.56770000     -72.27680000
C      -44.73820000     -33.53590000     -73.36430000
C      -43.59650000     -34.23840000     -73.58110000
S      -46.41290000     -36.64040000     -71.60000000
S      -43.58280000     -35.85440000     -72.77000000
H      -42.71950000     -33.80440000     -74.09100000
