40
Properties=species:S:1:pos:R:3 #=T CELL(abcABC):=T 1.889726e+02=T 90.00000=T Traj:=T positionsangstrom=T Step:=T 0=T Bead:=T pbc="F F F"
C      -42.59130000     -33.27080000     -70.04620000
C      -43.19090000     -31.94860000     -69.84400000
C      -44.46010000     -31.83470000     -69.35110000
C      -45.13800000     -33.01620000     -68.95510000
C      -44.57600000     -34.32060000     -69.19020000
C      -43.25370000     -34.42510000     -69.64620000
H      -41.63450000     -33.21490000     -70.52680000
H      -45.03440000     -30.86910000     -69.24780000
H      -45.18890000     -35.22360000     -69.18040000
H      -42.83760000     -35.45340000     -69.88350000
C      -46.46900000     -32.94950000     -68.28830000
H      -46.48320000     -31.99550000     -67.75610000
H      -46.54640000     -33.75400000     -67.57840000
C      -42.56470000     -30.77090000     -70.43620000
H      -43.10860000     -29.94100000     -70.10780000
H      -41.50980000     -30.65850000     -70.38470000
S      -47.87350000     -33.38210000     -69.35290000
S      -42.79440000     -30.83030000     -72.35540000
C      -47.87910000     -32.09090000     -70.68580000
H      -48.65970000     -31.33630000     -70.36520000
H      -46.86500000     -31.60680000     -70.67500000
C      -44.65330000     -30.63690000     -72.59890000
H      -44.84480000     -29.63500000     -73.10150000
H      -45.04380000     -30.63840000     -71.56010000
C      -45.21280000     -31.76530000     -73.53160000
H      -46.28280000     -31.63760000     -73.57090000
H      -44.78030000     -31.65180000     -74.52090000
C      -48.32150000     -32.64690000     -72.03790000
H      -48.23930000     -31.97030000     -72.82910000
H      -49.39390000     -32.83130000     -71.98720000
C      -47.54350000     -33.94740000     -72.30500000
C      -48.12890000     -35.17260000     -71.99390000
C      -46.11050000     -34.03020000     -72.59780000
H      -49.15950000     -35.24620000     -71.73960000
C      -45.64620000     -35.33090000     -72.37630000
C      -45.04290000     -33.23920000     -73.10660000
C      -43.79140000     -33.92030000     -73.33850000
S      -46.88190000     -36.38540000     -71.91350000
S      -43.94260000     -35.62510000     -72.86110000
H      -42.90670000     -33.59950000     -73.78910000
