40
Properties=species:S:1:pos:R:3 #=T CELL(abcABC):=T 1.889726e+02=T 90.00000=T Traj:=T positionsangstrom=T Step:=T 0=T Bead:=T pbc="F F F"
C      -43.66910000     -33.47610000     -69.83380000
C      -43.95590000     -32.12980000     -70.04290000
C      -45.21570000     -31.64230000     -69.58580000
C      -46.10410000     -32.44940000     -68.87170000
C      -45.70620000     -33.73910000     -68.59490000
C      -44.46340000     -34.28670000     -69.03940000
H      -42.73530000     -33.87820000     -70.20060000
H      -45.53770000     -30.60870000     -69.78900000
H      -46.37800000     -34.37560000     -67.98460000
H      -44.07540000     -35.30340000     -68.80010000
C      -47.47440000     -31.97680000     -68.39140000
H      -47.35580000     -30.94030000     -68.07360000
H      -47.71020000     -32.68700000     -67.54110000
C      -42.92070000     -31.17880000     -70.62500000
H      -43.31380000     -30.18860000     -70.36080000
H      -41.95360000     -31.40380000     -70.10030000
S      -48.69840000     -32.37310000     -69.68600000
S      -42.54670000     -31.19330000     -72.46320000
C      -47.93320000     -32.07830000     -71.35210000
H      -48.50260000     -31.21040000     -71.73240000
H      -46.90060000     -31.79540000     -71.21260000
C      -44.26290000     -30.92390000     -73.14570000
H      -44.27700000     -30.03400000     -73.76910000
H      -44.85970000     -30.61300000     -72.30980000
C      -44.93150000     -32.03300000     -73.85980000
H      -45.96820000     -31.82580000     -73.85750000
H      -44.63490000     -32.01990000     -74.91830000
C      -47.98570000     -33.26210000     -72.27410000
H      -47.97920000     -32.89860000     -73.27850000
H      -48.95550000     -33.69910000     -72.14470000
C      -46.90860000     -34.31850000     -71.91870000
C      -47.11530000     -35.49040000     -71.24880000
C      -45.49810000     -34.29490000     -72.43900000
H      -48.01090000     -35.83970000     -70.76820000
C      -44.88660000     -35.52720000     -72.22430000
C      -44.67290000     -33.40580000     -73.25310000
C      -43.48300000     -33.94730000     -73.59940000
S      -45.87530000     -36.68100000     -71.37060000
S      -43.28620000     -35.60760000     -72.89980000
H      -42.76750000     -33.59610000     -74.33040000
