40
Properties=species:S:1:pos:R:3 #=T CELL(abcABC):=T 1.889726e+02=T 90.00000=T Traj:=T positionsangstrom=T Step:=T 0=T Bead:=T pbc="F F F"
C      -43.35940000     -33.21670000     -69.87500000
C      -43.73780000     -31.91790000     -69.90110000
C      -45.00500000     -31.54220000     -69.37320000
C      -45.97470000     -32.46340000     -68.93840000
C      -45.53760000     -33.81070000     -68.92200000
C      -44.20920000     -34.17040000     -69.33650000
H      -42.37800000     -33.58860000     -70.26020000
H      -45.22650000     -30.50290000     -69.29140000
H      -46.16270000     -34.59140000     -68.46870000
H      -43.92560000     -35.16810000     -69.14900000
C      -47.26710000     -32.01110000     -68.42640000
H      -47.27290000     -30.88840000     -68.35610000
H      -47.53570000     -32.25610000     -67.36860000
C      -42.89900000     -30.88360000     -70.57690000
H      -43.31600000     -29.85540000     -70.31060000
H      -41.91200000     -30.80480000     -70.09560000
S      -48.68530000     -32.57470000     -69.49340000
S      -42.60800000     -31.24980000     -72.35830000
C      -48.05610000     -31.97710000     -71.10660000
H      -48.62640000     -31.12920000     -71.50510000
H      -46.99580000     -31.58530000     -70.88700000
C      -44.24570000     -30.84310000     -73.04040000
H      -44.14630000     -30.01360000     -73.72590000
H      -44.75460000     -30.59910000     -72.12930000
C      -44.91860000     -32.07720000     -73.78210000
H      -45.99520000     -31.85680000     -73.83850000
H      -44.54450000     -32.09650000     -74.81920000
C      -47.97720000     -33.06340000     -72.26580000
H      -47.80580000     -32.54270000     -73.20800000
H      -48.93940000     -33.48400000     -72.36290000
C      -47.02310000     -34.26320000     -72.20530000
C      -47.41850000     -35.39810000     -71.57970000
C      -45.60510000     -34.32960000     -72.56270000
H      -48.37490000     -35.46120000     -71.09800000
C      -45.08700000     -35.62930000     -72.41930000
C      -44.62460000     -33.46950000     -73.25690000
C      -43.44810000     -34.17030000     -73.46240000
S      -46.10990000     -36.68440000     -71.45880000
S      -43.34620000     -35.77730000     -72.84530000
H      -42.54880000     -33.78200000     -73.98250000
