40
Properties=species:S:1:pos:R:3 #=T CELL(abcABC):=T 1.889726e+02=T 90.00000=T Traj:=T positionsangstrom=T Step:=T 0=T Bead:=T pbc="F F F"
C      -43.53230000     -32.73030000     -69.67470000
C      -44.29350000     -31.56490000     -69.98330000
C      -45.73970000     -31.52790000     -69.83670000
C      -46.30760000     -32.75500000     -69.35620000
C      -45.53650000     -33.88340000     -68.98390000
C      -44.15800000     -33.80490000     -69.05190000
H      -42.44830000     -32.55110000     -69.70690000
H      -46.17960000     -30.52690000     -70.08690000
H      -46.01150000     -34.76350000     -68.48370000
H      -43.53880000     -34.54770000     -68.58630000
C      -47.78700000     -32.91400000     -69.14140000
H      -48.14720000     -32.06250000     -68.56710000
H      -48.08090000     -33.76990000     -68.60480000
C      -43.58070000     -30.30420000     -70.47410000
H      -44.18120000     -29.34670000     -70.39500000
H      -42.69680000     -30.06290000     -69.81970000
S      -48.89960000     -33.00230000     -70.65040000
S      -43.00890000     -30.50700000     -72.20080000
C      -47.89690000     -32.36020000     -72.06610000
H      -48.61570000     -31.64280000     -72.60270000
H      -47.00040000     -31.83160000     -71.86770000
C      -44.60210000     -31.12980000     -73.16530000
H      -44.72130000     -30.37370000     -73.85130000
H      -45.49650000     -30.99170000     -72.54170000
C      -44.31570000     -32.50660000     -73.90660000
H      -45.18250000     -32.55840000     -74.61180000
H      -43.50020000     -32.56490000     -74.62930000
C      -47.59470000     -33.44790000     -73.07610000
H      -47.10280000     -32.93040000     -73.92110000
H      -48.59390000     -33.88080000     -73.46120000
C      -46.67440000     -34.53040000     -72.52220000
C      -47.16690000     -35.55420000     -71.78190000
C      -45.19050000     -34.43580000     -72.41850000
H      -48.28200000     -35.70660000     -71.60040000
C      -44.72870000     -35.50170000     -71.68130000
C      -44.11070000     -33.61610000     -72.86750000
C      -42.85150000     -34.03920000     -72.51030000
S      -45.94140000     -36.62320000     -71.00930000
S      -42.98390000     -35.53140000     -71.57770000
H      -41.88630000     -33.56720000     -72.86500000
