40
Properties=species:S:1:pos:R:3 #=T CELL(abcABC):=T 1.889726e+02=T 90.00000=T Traj:=T positionsangstrom=T Step:=T 0=T Bead:=T pbc="F F F"
C      -43.47850000     -32.60950000     -69.59010000
C      -44.26900000     -31.52580000     -69.94400000
C      -45.67650000     -31.53770000     -69.79810000
C      -46.27620000     -32.71250000     -69.20200000
C      -45.50000000     -33.76570000     -68.73750000
C      -44.10590000     -33.76640000     -69.00380000
H      -42.38770000     -32.57020000     -69.69160000
H      -46.36740000     -30.81290000     -70.22400000
H      -46.00600000     -34.53670000     -68.20330000
H      -43.46010000     -34.48610000     -68.53110000
C      -47.77510000     -32.66790000     -68.93740000
H      -48.15750000     -31.73560000     -68.55170000
H      -47.98130000     -33.43540000     -68.21830000
C      -43.46520000     -30.33440000     -70.48640000
H      -44.00280000     -29.33050000     -70.35730000
H      -42.53410000     -30.22910000     -69.93230000
S      -48.83550000     -32.95220000     -70.46560000
S      -42.94280000     -30.71280000     -72.19940000
C      -48.00050000     -32.30710000     -71.98650000
H      -48.68720000     -31.56420000     -72.43350000
H      -47.10040000     -31.71850000     -71.68300000
C      -44.46840000     -31.18050000     -73.09690000
H      -44.57300000     -30.33800000     -73.86240000
H      -45.30520000     -31.23650000     -72.48470000
C      -44.32090000     -32.43700000     -73.89960000
H      -45.28090000     -32.59530000     -74.48070000
H      -43.55950000     -32.44560000     -74.70100000
C      -47.58300000     -33.31540000     -73.06760000
H      -47.22660000     -32.83690000     -74.02430000
H      -48.53560000     -33.82700000     -73.31700000
C      -46.66640000     -34.39150000     -72.44310000
C      -47.24800000     -35.38550000     -71.68500000
C      -45.26380000     -34.45720000     -72.46630000
H      -48.32770000     -35.50670000     -71.62020000
C      -44.78200000     -35.56640000     -71.82140000
C      -44.17930000     -33.66390000     -73.06670000
C      -42.95970000     -34.31510000     -72.94500000
S      -46.01830000     -36.49330000     -70.95840000
S      -43.05990000     -35.77260000     -71.94840000
H      -42.04090000     -33.93410000     -73.45080000
