40
Properties=species:S:1:pos:R:3 #=T CELL(abcABC):=T 1.889726e+02=T 90.00000=T Traj:=T positionsangstrom=T Step:=T 0=T Bead:=T pbc="F F F"
C      -43.60520000     -33.51200000     -69.58030000
C      -43.93310000     -32.16880000     -69.97750000
C      -45.19850000     -31.73180000     -69.60410000
C      -46.15150000     -32.50100000     -68.93270000
C      -45.77930000     -33.76350000     -68.54120000
C      -44.54130000     -34.29940000     -68.87540000
H      -42.61700000     -33.91730000     -69.83920000
H      -45.39890000     -30.73540000     -69.79520000
H      -46.51440000     -34.31550000     -67.90940000
H      -44.27950000     -35.26520000     -68.47810000
C      -47.47570000     -31.82190000     -68.61080000
H      -47.36480000     -30.71680000     -68.60350000
H      -47.85700000     -32.07590000     -67.64190000
C      -42.91770000     -31.20020000     -70.49070000
H      -42.96860000     -30.11330000     -70.25220000
H      -41.95310000     -31.52120000     -70.24120000
S      -48.77580000     -32.26200000     -69.85640000
S      -42.75670000     -31.27120000     -72.40740000
C      -47.91760000     -32.14280000     -71.49280000
H      -48.40660000     -31.31210000     -71.98690000
H      -46.81640000     -31.81860000     -71.39570000
C      -44.51430000     -30.93080000     -73.09540000
H      -44.41570000     -30.13360000     -73.83040000
H      -45.16410000     -30.71140000     -72.25540000
C      -45.18000000     -32.12500000     -73.85530000
H      -46.27030000     -32.00050000     -73.62550000
H      -45.01830000     -31.96040000     -74.97770000
C      -47.95430000     -33.38770000     -72.36020000
H      -47.93040000     -33.05910000     -73.42820000
H      -48.90430000     -33.91540000     -72.14610000
C      -46.86400000     -34.43590000     -72.04390000
C      -47.05590000     -35.51030000     -71.24140000
C      -45.50620000     -34.37000000     -72.58030000
H      -48.02520000     -35.78290000     -70.98020000
C      -44.76050000     -35.46970000     -72.20290000
C      -44.71330000     -33.49090000     -73.42720000
C      -43.43110000     -33.92820000     -73.63560000
S      -45.54680000     -36.55330000     -71.07290000
S      -43.19080000     -35.53450000     -72.97520000
H      -42.63530000     -33.50620000     -74.26080000
