40
Properties=species:S:1:pos:R:3 #=T CELL(abcABC):=T 1.889726e+02=T 90.00000=T Traj:=T positionsangstrom=T Step:=T 0=T Bead:=T pbc="F F F"
C      -43.69820000     -33.09700000     -69.44850000
C      -43.95930000     -31.76950000     -69.78350000
C      -45.28160000     -31.31690000     -69.64870000
C      -46.28250000     -32.11010000     -69.03170000
C      -45.98380000     -33.36120000     -68.61420000
C      -44.69820000     -33.87710000     -68.84960000
H      -42.76530000     -33.58140000     -69.71400000
H      -45.55160000     -30.31280000     -69.86890000
H      -46.71370000     -34.10550000     -68.25110000
H      -44.48430000     -34.94220000     -68.63060000
C      -47.66130000     -31.54320000     -69.02540000
H      -47.71340000     -30.50130000     -69.36200000
H      -48.15440000     -31.59460000     -68.04190000
C      -42.87960000     -30.88240000     -70.38630000
H      -42.88650000     -29.78440000     -69.98690000
H      -41.90520000     -31.25870000     -70.20450000
S      -48.81080000     -32.58440000     -70.08040000
S      -42.87480000     -30.92090000     -72.29430000
C      -48.05430000     -32.35080000     -71.67870000
H      -48.73940000     -31.70800000     -72.24320000
H      -47.14350000     -31.83480000     -71.55060000
C      -44.61030000     -31.17450000     -72.94890000
H      -45.03890000     -30.21120000     -73.40680000
H      -45.22470000     -31.35990000     -72.10960000
C      -44.81900000     -32.29760000     -73.92230000
H      -45.85320000     -32.26960000     -74.17220000
H      -44.32720000     -32.09810000     -74.90970000
C      -47.89800000     -33.65230000     -72.50620000
H      -47.72190000     -33.47020000     -73.60840000
H      -48.85580000     -34.21050000     -72.52470000
C      -46.75760000     -34.62280000     -72.05820000
C      -46.90650000     -35.69420000     -71.24560000
C      -45.37030000     -34.56200000     -72.59700000
H      -47.71270000     -36.02880000     -70.49810000
C      -44.65630000     -35.65020000     -72.14690000
C      -44.55480000     -33.64390000     -73.34940000
C      -43.35130000     -34.22860000     -73.59940000
S      -45.49810000     -36.69880000     -71.03190000
S      -43.09270000     -35.76880000     -72.74840000
H      -42.46010000     -33.77750000     -74.06740000
