40
Properties=species:S:1:pos:R:3 #=T CELL(abcABC):=T 1.889726e+02=T 90.00000=T Traj:=T positionsangstrom=T Step:=T 0=T Bead:=T pbc="F F F"
C      -43.72190000     -32.42570000     -69.18110000
C      -44.37090000     -31.32980000     -69.77160000
C      -45.76900000     -31.30130000     -69.85110000
C      -46.52130000     -32.36660000     -69.30190000
C      -45.86160000     -33.47210000     -68.70620000
C      -44.44700000     -33.48890000     -68.66940000
H      -42.67060000     -32.36170000     -69.05060000
H      -46.26320000     -30.51530000     -70.34000000
H      -46.46330000     -34.39430000     -68.48100000
H      -43.95150000     -34.30630000     -68.25760000
C      -48.04590000     -32.36140000     -69.43580000
H      -48.38570000     -31.26190000     -69.41510000
H      -48.48710000     -32.84110000     -68.54800000
C      -43.57690000     -30.21920000     -70.34560000
H      -44.03390000     -29.23750000     -70.38960000
H      -42.61560000     -30.09480000     -69.76900000
S      -48.82490000     -33.27810000     -70.83860000
S      -43.08990000     -30.61810000     -72.08600000
C      -47.80040000     -32.55520000     -72.24940000
H      -48.38030000     -31.75550000     -72.69960000
H      -46.92330000     -32.09390000     -71.84070000
C      -44.46680000     -31.23470000     -73.03320000
H      -44.96770000     -30.53890000     -73.67320000
H      -45.33460000     -31.44700000     -72.35100000
C      -44.19000000     -32.49490000     -73.77190000
H      -45.02380000     -32.72870000     -74.54860000
H      -43.27760000     -32.42450000     -74.39620000
C      -47.51450000     -33.64820000     -73.28970000
H      -47.21680000     -33.27110000     -74.26430000
H      -48.44120000     -34.28050000     -73.54260000
C      -46.58640000     -34.65700000     -72.69710000
C      -47.06530000     -35.80550000     -72.10810000
C      -45.12020000     -34.58840000     -72.54490000
H      -48.12280000     -36.16670000     -72.22360000
C      -44.61530000     -35.62450000     -71.76240000
C      -43.98630000     -33.73140000     -72.96580000
C      -42.76150000     -34.07790000     -72.51500000
S      -45.89240000     -36.74900000     -71.12700000
S      -42.87170000     -35.48770000     -71.48590000
H      -41.82500000     -33.62120000     -72.79530000
