40
Properties=species:S:1:pos:R:3 #=T CELL(abcABC):=T 1.889726e+02=T 90.00000=T Traj:=T positionsangstrom=T Step:=T 0=T Bead:=T pbc="F F F"
C      -43.95940000     -32.19370000     -69.01010000
C      -44.53110000     -31.18240000     -69.80770000
C      -45.92920000     -31.09090000     -69.89920000
C      -46.72750000     -32.13270000     -69.36120000
C      -46.12500000     -33.21660000     -68.68420000
C      -44.76740000     -33.23130000     -68.49840000
H      -42.86500000     -32.33680000     -68.87330000
H      -46.50370000     -30.30640000     -70.44840000
H      -46.84230000     -33.91400000     -68.23200000
H      -44.36600000     -34.03060000     -67.85860000
C      -48.24610000     -32.17500000     -69.60020000
H      -48.63220000     -31.27120000     -69.99690000
H      -48.85520000     -32.29110000     -68.71450000
C      -43.62860000     -30.16430000     -70.44900000
H      -44.17250000     -29.27330000     -70.80340000
H      -42.78990000     -29.95400000     -69.84290000
S      -48.71140000     -33.45950000     -70.84270000
S      -42.70880000     -30.72400000     -71.99430000
C      -48.13800000     -32.66120000     -72.45340000
H      -48.95460000     -32.04640000     -72.98310000
H      -47.31910000     -32.09290000     -72.15100000
C      -44.24220000     -31.15070000     -73.09050000
H      -44.15510000     -30.28900000     -73.79420000
H      -45.01250000     -31.00160000     -72.33440000
C      -44.19850000     -32.53040000     -73.68580000
H      -44.96190000     -32.66010000     -74.39560000
H      -43.34720000     -32.50590000     -74.38060000
C      -47.45570000     -33.68490000     -73.33720000
H      -46.86890000     -33.17090000     -74.06680000
H      -48.26780000     -34.18450000     -73.73730000
C      -46.52930000     -34.64570000     -72.58120000
C      -46.99960000     -35.84940000     -72.08720000
C      -45.08840000     -34.58940000     -72.38750000
H      -48.05350000     -36.27500000     -71.94200000
C      -44.60540000     -35.68250000     -71.68280000
C      -44.00750000     -33.74080000     -72.86090000
C      -42.76810000     -34.16860000     -72.47450000
S      -45.78370000     -36.84480000     -71.19180000
S      -42.86090000     -35.65470000     -71.58710000
H      -41.77040000     -33.63990000     -72.51230000
