40
Properties=species:S:1:pos:R:3 #=T CELL(abcABC):=T 1.889726e+02=T 90.00000=T Traj:=T positionsangstrom=T Step:=T 0=T Bead:=T pbc="F F F"
C      -47.08360000     -31.22460000     -68.24510000
C      -46.11540000     -32.29970000     -68.25440000
C      -44.83130000     -32.02180000     -68.69130000
C      -44.46860000     -30.81140000     -69.20010000
C      -45.34540000     -29.72230000     -69.21590000
C      -46.68100000     -30.04160000     -68.80320000
H      -48.08530000     -31.29710000     -67.72350000
H      -44.07650000     -32.82790000     -68.55960000
H      -45.13310000     -28.73310000     -69.54170000
H      -47.33740000     -29.14720000     -68.77410000
C      -43.11640000     -30.62800000     -69.78200000
H      -42.58210000     -31.51650000     -69.47260000
H      -42.56140000     -29.80220000     -69.36890000
C      -46.50270000     -33.63280000     -67.70120000
H      -46.49790000     -33.47680000     -66.62730000
H      -47.51640000     -33.82470000     -68.07880000
S      -43.22670000     -30.36400000     -71.56290000
S      -45.35210000     -34.98260000     -67.97880000
C      -43.79880000     -32.02560000     -72.20920000
H      -43.30240000     -32.12740000     -73.17940000
H      -43.71910000     -32.92320000     -71.57950000
C      -45.15110000     -35.40300000     -69.68570000
H      -45.25490000     -36.50760000     -69.66480000
H      -44.24190000     -35.05520000     -69.97790000
C      -46.28350000     -34.84680000     -70.48560000
H      -47.24180000     -35.27400000     -70.22010000
H      -46.44830000     -33.77940000     -70.42880000
C      -45.32690000     -32.00620000     -72.55770000
H      -45.75070000     -31.13350000     -73.04580000
H      -45.88270000     -32.13450000     -71.62040000
C      -45.52450000     -33.17250000     -73.45370000
C      -45.17300000     -32.99040000     -74.78170000
C      -45.68920000     -34.52870000     -73.08520000
H      -44.99760000     -31.99410000     -75.14160000
C      -45.71590000     -35.35220000     -74.21560000
C      -46.08330000     -35.33220000     -71.90200000
C      -46.15880000     -36.67210000     -72.19130000
S      -45.34490000     -34.53260000     -75.70150000
S      -45.93140000     -37.07910000     -73.88700000
H      -46.64270000     -37.35650000     -71.51020000
