40
Properties=species:S:1:pos:R:3 #=T CELL(abcABC):=T 1.889726e+02=T 90.00000=T Traj:=T positionsangstrom=T Step:=T 0=T Bead:=T pbc="F F F"
C      -43.79050000     -36.35800000     -70.13030000
C      -43.44420000     -35.22720000     -69.31010000
C      -42.62090000     -34.25800000     -69.89610000
C      -42.03710000     -34.43340000     -71.24180000
C      -42.37280000     -35.54100000     -71.95850000
C      -43.23180000     -36.52780000     -71.37850000
H      -44.36210000     -37.17240000     -69.64910000
H      -42.55790000     -33.38990000     -69.34730000
H      -42.04800000     -35.87430000     -72.91780000
H      -43.51150000     -37.38950000     -71.95820000
C      -41.16140000     -33.30610000     -71.89990000
H      -41.20600000     -33.51210000     -72.98200000
H      -40.18480000     -33.33440000     -71.38130000
C      -44.06100000     -35.08280000     -67.93570000
H      -43.59590000     -35.84720000     -67.27640000
H      -43.77630000     -34.11020000     -67.49420000
S      -41.76810000     -31.48200000     -71.69770000
S      -45.85900000     -35.45550000     -67.91470000
C      -43.33470000     -31.42310000     -72.50140000
H      -43.62150000     -30.32910000     -72.53990000
H      -43.33480000     -31.72700000     -73.65090000
C      -46.60510000     -34.21720000     -69.07090000
H      -46.23980000     -33.22730000     -68.73510000
H      -47.63990000     -34.25370000     -68.77810000
C      -46.51810000     -34.50140000     -70.56070000
H      -45.49610000     -34.32250000     -70.91770000
H      -46.89910000     -35.52900000     -70.61750000
C      -44.47700000     -32.09440000     -71.85920000
H      -44.59610000     -31.83700000     -70.78320000
H      -44.35860000     -33.13420000     -71.85430000
C      -45.81850000     -31.84400000     -72.51920000
C      -46.05720000     -30.90790000     -73.48920000
C      -47.01360000     -32.57010000     -72.15550000
H      -45.34270000     -30.09600000     -73.83090000
C      -48.12950000     -32.06640000     -72.87000000
C      -47.50050000     -33.67910000     -71.34440000
C      -48.85790000     -33.93860000     -71.42190000
S      -47.75090000     -30.70990000     -73.90550000
S      -49.57660000     -32.94010000     -72.61520000
H      -49.47380000     -34.60550000     -70.75500000
