40
Properties=species:S:1:pos:R:3 #=T CELL(abcABC):=T 1.889726e+02=T 90.00000=T Traj:=T positionsangstrom=T Step:=T 0=T Bead:=T pbc="F F F"
C      -43.18620000     -29.52900000     -71.29940000
C      -44.30060000     -30.28360000     -70.81990000
C      -44.85820000     -31.31970000     -71.61350000
C      -44.38290000     -31.50190000     -72.92090000
C      -43.41860000     -30.60440000     -73.47770000
C      -42.88920000     -29.63720000     -72.65850000
H      -42.79660000     -28.63060000     -70.77590000
H      -45.58690000     -31.91560000     -71.13270000
H      -43.03700000     -30.72020000     -74.49260000
H      -42.11540000     -29.02010000     -73.21080000
C      -44.78310000     -32.79050000     -73.68800000
H      -45.07730000     -32.76940000     -74.76260000
H      -45.63320000     -33.28890000     -73.11970000
C      -44.69320000     -30.18140000     -69.40550000
H      -44.50550000     -29.19660000     -68.93930000
H      -45.84800000     -30.36800000     -69.36210000
S      -43.32710000     -34.08530000     -73.98360000
S      -44.07820000     -31.45080000     -68.19520000
C      -43.05410000     -34.38550000     -72.12610000
H      -41.91440000     -34.35940000     -72.01680000
H      -43.34800000     -33.54720000     -71.46830000
C      -45.40350000     -32.65610000     -67.92760000
H      -46.30040000     -32.05880000     -68.09040000
H      -45.44770000     -32.86170000     -66.89910000
C      -45.34600000     -33.92740000     -68.83040000
H      -44.38930000     -33.83490000     -69.40720000
H      -45.25390000     -34.74010000     -68.14380000
C      -43.76030000     -35.63770000     -71.60400000
H      -43.44180000     -35.89900000     -70.55940000
H      -43.48870000     -36.54330000     -72.12590000
C      -45.27740000     -35.58910000     -71.76330000
C      -45.76940000     -36.08170000     -72.95060000
C      -46.34130000     -35.08130000     -70.91650000
H      -45.11680000     -36.62650000     -73.58450000
C      -47.63160000     -35.38830000     -71.51220000
C      -46.57750000     -34.32220000     -69.71610000
C      -47.87790000     -34.21960000     -69.32580000
S      -47.49340000     -36.29100000     -73.01200000
S      -49.00050000     -34.92920000     -70.52920000
H      -48.49830000     -33.89730000     -68.45310000
