40
Properties=species:S:1:pos:R:3 #=T CELL(abcABC):=T 1.889726e+02=T 90.00000=T Traj:=T positionsangstrom=T Step:=T 0=T Bead:=T pbc="F F F"
C      -45.40660000     -31.39210000     -68.68700000
C      -45.54140000     -30.84670000     -69.99680000
C      -46.62840000     -31.24030000     -70.80460000
C      -47.61280000     -32.07250000     -70.28380000
C      -47.41600000     -32.67360000     -69.05910000
C      -46.35880000     -32.27460000     -68.21600000
H      -44.58940000     -31.15660000     -67.98500000
H      -46.88750000     -30.78850000     -71.75490000
H      -48.01510000     -33.48750000     -68.74300000
H      -46.23580000     -32.91350000     -67.29200000
C      -48.90970000     -32.33840000     -71.05970000
H      -49.18960000     -31.46680000     -71.71930000
H      -49.79110000     -32.52540000     -70.36290000
C      -44.48690000     -29.94390000     -70.52290000
H      -44.92030000     -29.23870000     -71.27170000
H      -43.99810000     -29.38220000     -69.81140000
S      -48.75020000     -33.89360000     -72.03550000
S      -43.06550000     -30.76080000     -71.37540000
C      -47.43770000     -33.29830000     -73.20980000
H      -47.81500000     -32.86500000     -74.07800000
H      -46.94060000     -32.46290000     -72.74480000
C      -43.87140000     -31.26520000     -72.95490000
H      -43.70860000     -30.55360000     -73.84930000
H      -44.91860000     -31.36180000     -72.72380000
C      -43.27600000     -32.64650000     -73.43420000
H      -43.78670000     -32.91300000     -74.38250000
H      -42.23500000     -32.49370000     -73.65760000
C      -46.54920000     -34.43560000     -73.76250000
H      -45.90970000     -34.08490000     -74.57080000
H      -47.33380000     -35.14870000     -74.17120000
C      -45.65430000     -35.07940000     -72.70940000
C      -46.29080000     -36.05750000     -71.99670000
C      -44.31050000     -34.69650000     -72.16530000
H      -47.22920000     -36.52800000     -72.36130000
C      -44.05500000     -35.59130000     -71.10280000
C      -43.26690000     -33.74750000     -72.36420000
C      -42.22830000     -33.98710000     -71.52530000
S      -45.31690000     -36.72280000     -70.74290000
S      -42.39100000     -35.44450000     -70.56950000
H      -41.32030000     -33.45900000     -71.29710000
