40
Properties=species:S:1:pos:R:3 #=T CELL(abcABC):=T 1.889726e+02=T 90.00000=T Traj:=T positionsangstrom=T Step:=T 0=T Bead:=T pbc="F F F"
C      -42.76860000     -29.42390000     -70.79420000
C      -44.07560000     -29.91520000     -70.64110000
C      -44.69450000     -30.63900000     -71.63870000
C      -43.94820000     -30.90430000     -72.81670000
C      -42.61950000     -30.43350000     -72.92600000
C      -42.05750000     -29.72730000     -71.92770000
H      -42.30730000     -28.84640000     -69.97170000
H      -45.70250000     -30.99870000     -71.54260000
H      -42.04640000     -30.59210000     -73.83020000
H      -41.02730000     -29.33650000     -72.02230000
C      -44.65170000     -31.67650000     -73.91950000
H      -44.49130000     -31.21550000     -74.89750000
H      -45.73640000     -31.57730000     -73.65410000
C      -44.90650000     -29.69160000     -69.36330000
H      -44.35430000     -28.87960000     -68.79790000
H      -45.97700000     -29.43250000     -69.48450000
S      -44.10430000     -33.45560000     -73.92310000
S      -44.79220000     -31.18390000     -68.25050000
C      -43.46550000     -33.88430000     -72.28510000
H      -42.36210000     -33.72870000     -72.26910000
H      -43.79910000     -33.13450000     -71.53500000
C      -46.13020000     -32.31130000     -68.99030000
H      -46.56010000     -31.75700000     -69.87130000
H      -46.95410000     -32.46950000     -68.27070000
C      -45.53170000     -33.71950000     -69.23410000
H      -44.64160000     -33.72830000     -69.82760000
H      -45.19460000     -34.09040000     -68.24380000
C      -43.64540000     -35.35730000     -71.81060000
H      -43.12190000     -35.56080000     -70.83970000
H      -43.07570000     -36.02250000     -72.56600000
C      -45.07320000     -35.83530000     -71.85190000
C      -45.44340000     -36.83870000     -72.78660000
C      -46.23360000     -35.43760000     -71.07040000
H      -44.71880000     -37.35660000     -73.45270000
C      -47.36220000     -36.15580000     -71.48210000
C      -46.58300000     -34.59570000     -69.92730000
C      -47.88770000     -34.60660000     -69.64140000
S      -47.16010000     -37.24570000     -72.81170000
S      -48.80930000     -35.84450000     -70.42400000
H      -48.44290000     -34.21550000     -68.78450000
