40
Properties=species:S:1:pos:R:3 #=T CELL(abcABC):=T 1.889726e+02=T 90.00000=T Traj:=T positionsangstrom=T Step:=T 0=T Bead:=T pbc="F F F"
C      -45.68030000     -31.97580000     -69.01620000
C      -46.08840000     -30.98540000     -70.06550000
C      -47.20850000     -31.31410000     -70.86570000
C      -47.74210000     -32.59310000     -70.80980000
C      -47.27450000     -33.55070000     -69.93180000
C      -46.28790000     -33.20170000     -68.98420000
H      -44.90940000     -31.81100000     -68.32280000
H      -47.61220000     -30.61930000     -71.61490000
H      -47.75100000     -34.47800000     -69.82730000
H      -46.01740000     -33.96380000     -68.25070000
C      -48.66580000     -32.90690000     -71.92300000
H      -48.86960000     -32.04340000     -72.49340000
H      -49.66460000     -33.37860000     -71.64670000
C      -45.47730000     -29.72600000     -70.46200000
H      -46.03300000     -29.16770000     -71.20660000
H      -45.43550000     -29.02090000     -69.59070000
S      -48.03350000     -34.12630000     -73.18880000
S      -43.69050000     -29.99180000     -71.01980000
C      -46.45500000     -33.39190000     -73.88740000
H      -46.57790000     -32.92060000     -74.85250000
H      -46.19920000     -32.58760000     -73.11390000
C      -44.16310000     -31.19760000     -72.42820000
H      -44.37560000     -30.67490000     -73.35580000
H      -45.17240000     -31.62460000     -72.32290000
C      -43.12470000     -32.29050000     -72.52330000
H      -43.03520000     -32.71950000     -73.51420000
H      -42.14250000     -31.88330000     -72.28980000
C      -45.28310000     -34.35260000     -74.08990000
H      -44.45280000     -33.70840000     -74.39670000
H      -45.46080000     -35.09460000     -74.86460000
C      -45.01680000     -35.07540000     -72.78070000
C      -45.56380000     -36.27960000     -72.50190000
C      -44.13540000     -34.61360000     -71.74670000
H      -46.43060000     -36.78480000     -72.94200000
C      -44.15970000     -35.46640000     -70.65560000
C      -43.35720000     -33.43060000     -71.52350000
C      -42.71040000     -33.45940000     -70.30860000
S      -45.04830000     -36.94520000     -70.87500000
S      -43.16790000     -34.85500000     -69.34010000
H      -42.23850000     -32.58270000     -69.96390000
