40
Properties=species:S:1:pos:R:3 #=T CELL(abcABC):=T 1.889726e+02=T 90.00000=T Traj:=T positionsangstrom=T Step:=T 0=T Bead:=T pbc="F F F"
C      -42.68860000     -29.60130000     -70.46150000
C      -44.06950000     -29.91070000     -70.42550000
C      -44.71000000     -30.41750000     -71.53940000
C      -43.92700000     -30.72760000     -72.70630000
C      -42.53530000     -30.49240000     -72.67970000
C      -41.92860000     -29.89220000     -71.59780000
H      -42.22470000     -29.07950000     -69.63960000
H      -45.81560000     -30.45920000     -71.64690000
H      -42.02580000     -30.79000000     -73.60420000
H      -40.84720000     -29.67400000     -71.65990000
C      -44.60660000     -31.33820000     -73.83720000
H      -43.96230000     -31.25160000     -74.74570000
H      -45.57680000     -30.93080000     -74.04770000
C      -44.88720000     -29.72310000     -69.20720000
H      -44.45840000     -29.00930000     -68.46940000
H      -45.90830000     -29.42570000     -69.29070000
S      -45.00990000     -33.14690000     -73.48430000
S      -44.88660000     -31.35990000     -68.24310000
C      -43.65150000     -33.49390000     -72.27620000
H      -42.63690000     -33.19690000     -72.65280000
H      -43.79110000     -32.75950000     -71.45500000
C      -46.02500000     -32.40570000     -69.37610000
H      -45.96890000     -32.10190000     -70.40080000
H      -47.01480000     -32.10970000     -69.03870000
C      -45.78580000     -33.90940000     -69.18390000
H      -44.75030000     -34.12500000     -69.32660000
H      -45.95920000     -34.08830000     -68.13460000
C      -43.64950000     -34.96780000     -71.70650000
H      -43.37730000     -35.04540000     -70.64460000
H      -42.90400000     -35.51240000     -72.37080000
C      -44.92450000     -35.68000000     -71.93130000
C      -45.01640000     -36.57430000     -72.96070000
C      -46.19300000     -35.46220000     -71.22790000
H      -44.21580000     -36.78070000     -73.70690000
C      -47.16880000     -36.32930000     -71.67660000
C      -46.65380000     -34.74630000     -70.03650000
C      -47.89910000     -35.03270000     -69.70830000
S      -46.60520000     -37.25830000     -73.05860000
S      -48.66760000     -36.19060000     -70.84220000
H      -48.45520000     -34.75720000     -68.84160000
