40
Properties=species:S:1:pos:R:3 #=T CELL(abcABC):=T 1.889726e+02=T 90.00000=T Traj:=T positionsangstrom=T Step:=T 0=T Bead:=T pbc="F F F"
C      -42.71200000     -29.69840000     -70.43010000
C      -44.10110000     -29.84700000     -70.46730000
C      -44.75010000     -30.17780000     -71.66180000
C      -43.95770000     -30.47120000     -72.81280000
C      -42.56940000     -30.28400000     -72.76850000
C      -41.98690000     -29.78700000     -71.58470000
H      -42.27550000     -29.52630000     -69.47120000
H      -45.80700000     -30.47090000     -71.71600000
H      -42.02360000     -30.71500000     -73.55090000
H      -40.90540000     -29.63610000     -71.49910000
C      -44.53490000     -31.30550000     -73.95920000
H      -43.73770000     -31.38770000     -74.71820000
H      -45.39030000     -30.93060000     -74.48890000
C      -44.95450000     -29.82180000     -69.22940000
H      -44.57550000     -29.04110000     -68.58870000
H      -46.01800000     -29.68580000     -69.50080000
S      -45.05240000     -32.95290000     -73.32500000
S      -44.99190000     -31.36420000     -68.20400000
C      -43.61980000     -33.37330000     -72.28280000
H      -42.64730000     -33.15010000     -72.74740000
H      -43.73440000     -32.71860000     -71.45270000
C      -45.96540000     -32.50510000     -69.33960000
H      -45.60180000     -32.37250000     -70.37050000
H      -47.05740000     -32.24600000     -69.32260000
C      -45.87920000     -34.01960000     -69.00540000
H      -44.82760000     -34.38580000     -69.11980000
H      -46.26600000     -34.30250000     -68.02910000
C      -43.65940000     -34.83250000     -71.74590000
H      -43.50680000     -34.88430000     -70.65560000
H      -42.87730000     -35.41530000     -72.23250000
C      -44.89900000     -35.61430000     -71.96750000
C      -44.97750000     -36.49490000     -72.98520000
C      -46.12190000     -35.54330000     -71.18990000
H      -44.07710000     -36.67920000     -73.63250000
C      -47.07700000     -36.39140000     -71.69580000
C      -46.60090000     -34.97330000     -69.94420000
C      -47.87080000     -35.29590000     -69.69640000
S      -46.59890000     -37.24570000     -73.16610000
S      -48.55850000     -36.45000000     -70.83780000
H      -48.51420000     -34.93440000     -68.89420000
