40
Properties=species:S:1:pos:R:3 #=T CELL(abcABC):=T 1.889726e+02=T 90.00000=T Traj:=T positionsangstrom=T Step:=T 0=T Bead:=T pbc="F F F"
C      -42.72930000     -29.74060000     -70.46550000
C      -44.10650000     -29.90150000     -70.51520000
C      -44.79570000     -30.23180000     -71.72870000
C      -43.97680000     -30.70190000     -72.76340000
C      -42.57210000     -30.45120000     -72.77060000
C      -41.92570000     -30.03650000     -71.59760000
H      -42.24660000     -29.43600000     -69.52230000
H      -45.82960000     -30.36630000     -71.85010000
H      -42.01270000     -30.55050000     -73.75670000
H      -40.85390000     -29.89580000     -71.64580000
C      -44.55250000     -31.40600000     -73.95550000
H      -43.95260000     -31.28150000     -74.84450000
H      -45.56620000     -31.00240000     -74.12710000
C      -44.89470000     -29.68960000     -69.22920000
H      -44.20010000     -29.01270000     -68.62590000
H      -45.87320000     -29.24670000     -69.34390000
S      -44.72360000     -33.27260000     -73.57160000
S      -44.93530000     -31.29980000     -68.27030000
C      -43.66450000     -33.62380000     -72.08110000
H      -42.70360000     -33.24620000     -72.33360000
H      -44.14200000     -33.07150000     -71.27430000
C      -46.09830000     -32.43870000     -69.17430000
H      -46.20610000     -32.11700000     -70.25620000
H      -47.05070000     -32.28150000     -68.63580000
C      -45.60130000     -33.87310000     -69.14310000
H      -44.57080000     -33.87670000     -69.50860000
H      -45.60060000     -34.27430000     -68.10960000
C      -43.56330000     -35.15920000     -71.77040000
H      -43.05340000     -35.29430000     -70.83690000
H      -42.93280000     -35.58550000     -72.48550000
C      -44.94340000     -35.79050000     -71.90390000
C      -45.14380000     -36.70130000     -72.97770000
C      -46.11820000     -35.62180000     -71.11380000
H      -44.47810000     -37.05520000     -73.75450000
C      -47.25820000     -36.29240000     -71.62270000
C      -46.54720000     -34.70420000     -70.08670000
C      -47.85050000     -34.81960000     -69.75510000
S      -46.76730000     -37.26790000     -72.95120000
S      -48.74340000     -35.90590000     -70.78880000
H      -48.35250000     -34.46590000     -68.85480000
