40
Properties=species:S:1:pos:R:3 #=T CELL(abcABC):=T 1.889726e+02=T 90.00000=T Traj:=T positionsangstrom=T Step:=T 0=T Bead:=T pbc="F F F"
C      -42.86690000     -29.55880000     -70.57950000
C      -44.20610000     -29.97850000     -70.58550000
C      -44.78110000     -30.53290000     -71.71690000
C      -43.99830000     -30.90270000     -72.84010000
C      -42.59450000     -30.50610000     -72.77280000
C      -42.04180000     -29.85140000     -71.65540000
H      -42.37910000     -29.08670000     -69.73010000
H      -45.86220000     -30.79040000     -71.61450000
H      -41.96280000     -30.73990000     -73.57880000
H      -40.97360000     -29.51160000     -71.66940000
C      -44.46230000     -31.65790000     -74.04370000
H      -43.82080000     -31.37440000     -74.89700000
H      -45.46460000     -31.33170000     -74.19080000
C      -45.05140000     -29.75120000     -69.32910000
H      -44.74820000     -28.96620000     -68.71950000
H      -46.14480000     -29.58810000     -69.39320000
S      -44.38300000     -33.50150000     -74.07590000
S      -44.82740000     -31.27760000     -68.17650000
C      -43.65730000     -33.66570000     -72.35550000
H      -42.65740000     -33.22770000     -72.37200000
H      -44.33310000     -33.08240000     -71.74160000
C      -46.03430000     -32.37410000     -69.06210000
H      -45.97950000     -31.99880000     -70.07340000
H      -47.02290000     -32.21590000     -68.75150000
C      -45.47710000     -33.81230000     -69.10670000
H      -44.49900000     -33.82780000     -69.59710000
H      -45.29070000     -34.18150000     -68.08150000
C      -43.65770000     -35.02110000     -71.81390000
H      -43.24670000     -34.87340000     -70.84030000
H      -42.99120000     -35.60910000     -72.43740000
C      -44.99700000     -35.74870000     -71.78490000
C      -45.26690000     -36.69510000     -72.80050000
C      -46.23650000     -35.50180000     -71.06210000
H      -44.56740000     -36.99240000     -73.54730000
C      -47.32590000     -36.21730000     -71.51710000
C      -46.50260000     -34.68660000     -69.88500000
C      -47.80720000     -34.70210000     -69.53460000
S      -46.92570000     -37.27910000     -72.76520000
S      -48.78220000     -35.71240000     -70.63840000
H      -48.25020000     -34.11100000     -68.66230000
