40
Properties=species:S:1:pos:R:3 #=T CELL(abcABC):=T 1.889726e+02=T 90.00000=T Traj:=T positionsangstrom=T Step:=T 0=T Bead:=T pbc="F F F"
C      -46.55620000     -32.77610000     -69.00370000
C      -46.99780000     -31.90060000     -70.05860000
C      -47.73570000     -32.34670000     -71.12530000
C      -48.11970000     -33.69140000     -71.26310000
C      -47.69700000     -34.49420000     -70.16320000
C      -46.95950000     -34.11390000     -69.09140000
H      -45.98670000     -32.34310000     -68.20070000
H      -48.05970000     -31.59880000     -71.84240000
H      -48.03490000     -35.54410000     -70.30190000
H      -46.75460000     -34.85750000     -68.35530000
C      -48.85860000     -34.12670000     -72.46630000
H      -49.55490000     -33.31060000     -72.77220000
H      -49.50490000     -34.97670000     -72.31260000
C      -46.62320000     -30.40890000     -69.97880000
H      -47.24230000     -29.82810000     -70.73200000
H      -46.93910000     -29.94900000     -69.02630000
S      -47.70240000     -34.63310000     -73.81610000
S      -44.82330000     -30.13890000     -70.14550000
C      -46.41570000     -33.25820000     -73.97270000
H      -46.62310000     -32.66310000     -74.89420000
H      -46.49390000     -32.49600000     -73.27920000
C      -44.61760000     -30.81380000     -71.89950000
H      -44.92670000     -30.09210000     -72.64510000
H      -45.37110000     -31.66820000     -72.03220000
C      -43.24960000     -31.35850000     -72.27570000
H      -43.17910000     -31.53380000     -73.39620000
H      -42.42340000     -30.61190000     -72.01830000
C      -44.99000000     -33.78750000     -74.04950000
H      -44.33980000     -32.99540000     -74.31150000
H      -45.00410000     -34.53130000     -74.79080000
C      -44.49910000     -34.44350000     -72.77500000
C      -44.70580000     -35.75210000     -72.43620000
C      -43.74250000     -33.83490000     -71.69840000
H      -45.30060000     -36.40760000     -73.08310000
C      -43.36450000     -34.78750000     -70.72820000
C      -43.13740000     -32.56250000     -71.39670000
C      -42.42650000     -32.59760000     -70.21650000
S      -44.08600000     -36.39790000     -70.95420000
S      -42.30450000     -34.21570000     -69.49740000
H      -41.77570000     -31.79390000     -69.78500000
