40
Properties=species:S:1:pos:R:3 #=T CELL(abcABC):=T 1.889726e+02=T 90.00000=T Traj:=T positionsangstrom=T Step:=T 0=T Bead:=T pbc="F F F"
C      -43.90630000     -29.24480000     -69.95890000
C      -45.04530000     -29.98520000     -70.22070000
C      -45.32260000     -30.48970000     -71.50470000
C      -44.37070000     -30.21170000     -72.48980000
C      -43.19790000     -29.51810000     -72.22950000
C      -42.99150000     -29.06010000     -70.95590000
H      -43.67510000     -28.92840000     -68.88700000
H      -46.26890000     -31.03320000     -71.73270000
H      -42.56490000     -29.10860000     -73.03300000
H      -42.17330000     -28.55820000     -70.61950000
C      -44.64920000     -30.82570000     -73.84980000
H      -44.07710000     -30.26840000     -74.63720000
H      -45.70350000     -30.63600000     -74.12880000
C      -45.95130000     -30.29610000     -69.12060000
H      -46.02190000     -29.46420000     -68.44090000
H      -47.03140000     -30.44000000     -69.37390000
S      -44.19760000     -32.66360000     -73.97610000
S      -45.33540000     -31.67970000     -68.04760000
C      -43.63990000     -33.11780000     -72.25100000
H      -42.65410000     -32.58200000     -72.15020000
H      -44.32140000     -32.67380000     -71.44550000
C      -46.20290000     -33.03260000     -68.90790000
H      -46.70190000     -32.50090000     -69.75650000
H      -47.02820000     -33.46920000     -68.27550000
C      -45.25830000     -34.20860000     -69.20610000
H      -44.35060000     -33.85000000     -69.63600000
H      -44.86410000     -34.69580000     -68.31150000
C      -43.55960000     -34.60770000     -72.20900000
H      -43.12280000     -34.88450000     -71.29750000
H      -42.89810000     -34.92160000     -73.09130000
C      -44.81650000     -35.34690000     -72.36850000
C      -45.05530000     -36.12290000     -73.51740000
C      -45.81030000     -35.56470000     -71.39950000
H      -44.43630000     -36.34570000     -74.41090000
C      -46.76120000     -36.48160000     -71.85610000
C      -45.97480000     -35.24230000     -70.02830000
C      -47.02830000     -35.94080000     -69.54910000
S      -46.47260000     -37.08470000     -73.43140000
S      -47.78430000     -37.08820000     -70.57610000
H      -47.49380000     -35.67640000     -68.53870000
