40
Properties=species:S:1:pos:R:3 #=T CELL(abcABC):=T 1.889726e+02=T 90.00000=T Traj:=T positionsangstrom=T Step:=T 0=T Bead:=T pbc="F F F"
C      -46.63400000     -32.82850000     -69.09320000
C      -47.18800000     -31.89510000     -69.97340000
C      -47.99770000     -32.30520000     -71.01600000
C      -48.18890000     -33.63300000     -71.33290000
C      -47.62530000     -34.56450000     -70.42940000
C      -46.93390000     -34.11510000     -69.31550000
H      -45.96820000     -32.44790000     -68.29690000
H      -48.43740000     -31.51400000     -71.63990000
H      -47.69950000     -35.60730000     -70.62650000
H      -46.41810000     -34.84640000     -68.70660000
C      -48.87910000     -34.13530000     -72.56770000
H      -49.36600000     -33.25410000     -73.05170000
H      -49.66170000     -34.86410000     -72.34210000
C      -46.82340000     -30.46310000     -69.84950000
H      -47.37580000     -29.95230000     -70.65270000
H      -47.02010000     -30.07740000     -68.88680000
S      -47.59030000     -34.82300000     -73.78260000
S      -45.03380000     -30.06690000     -70.11540000
C      -46.48350000     -33.29940000     -74.05290000
H      -46.74140000     -32.93880000     -75.03400000
H      -46.78140000     -32.55980000     -73.26280000
C      -44.64800000     -30.56880000     -71.95300000
H      -44.84340000     -29.71020000     -72.58090000
H      -45.43200000     -31.32000000     -72.18060000
C      -43.26220000     -31.21940000     -72.16070000
H      -43.07250000     -31.30890000     -73.21660000
H      -42.47230000     -30.49950000     -71.86230000
C      -44.94680000     -33.75690000     -73.96400000
H      -44.30470000     -32.92410000     -74.28360000
H      -44.76420000     -34.54860000     -74.80620000
C      -44.45120000     -34.44600000     -72.69550000
C      -44.64330000     -35.79110000     -72.52180000
C      -43.67090000     -33.90770000     -71.58030000
H      -45.28880000     -36.44200000     -73.04330000
C      -43.20350000     -34.85880000     -70.71480000
C      -43.08240000     -32.59990000     -71.38710000
C      -42.28900000     -32.59180000     -70.27960000
S      -43.87230000     -36.44220000     -70.99160000
S      -42.32390000     -34.10320000     -69.39850000
H      -41.88400000     -31.69500000     -69.84740000
