40
Properties=species:S:1:pos:R:3 #=T CELL(abcABC):=T 1.889726e+02=T 90.00000=T Traj:=T positionsangstrom=T Step:=T 0=T Bead:=T pbc="F F F"
C      -46.61410000     -32.85480000     -69.20120000
C      -47.11550000     -31.87310000     -70.04710000
C      -47.86970000     -32.29980000     -71.19400000
C      -48.10830000     -33.63250000     -71.38710000
C      -47.53580000     -34.58520000     -70.52180000
C      -46.77900000     -34.23610000     -69.35450000
H      -46.07320000     -32.58470000     -68.28530000
H      -48.21610000     -31.50010000     -71.87350000
H      -47.75610000     -35.59030000     -70.68320000
H      -46.41510000     -34.99280000     -68.62310000
C      -48.86200000     -34.08190000     -72.67050000
H      -49.25760000     -33.27660000     -73.20450000
H      -49.54150000     -34.94070000     -72.45890000
C      -46.91760000     -30.46170000     -69.77940000
H      -47.57840000     -29.80490000     -70.34440000
H      -47.05160000     -30.18170000     -68.70380000
S      -47.60410000     -34.91580000     -73.76790000
S      -45.05100000     -30.01320000     -70.11110000
C      -46.41220000     -33.48010000     -73.97740000
H      -46.67240000     -32.82920000     -74.80990000
H      -46.51620000     -32.87060000     -73.06510000
C      -44.92580000     -30.59400000     -71.82160000
H      -45.02600000     -29.68820000     -72.42960000
H      -45.73260000     -31.28520000     -72.01020000
C      -43.53630000     -31.15330000     -71.94750000
H      -43.30320000     -31.35180000     -73.03750000
H      -42.82710000     -30.40180000     -71.56400000
C      -44.85980000     -33.77570000     -74.05140000
H      -44.28260000     -32.87100000     -74.31210000
H      -44.60460000     -34.50700000     -74.82340000
C      -44.35270000     -34.37250000     -72.76610000
C      -44.46220000     -35.74320000     -72.58190000
C      -43.69740000     -33.77250000     -71.61380000
H      -44.82750000     -36.41380000     -73.29020000
C      -43.26470000     -34.77340000     -70.73370000
C      -43.29260000     -32.47920000     -71.16610000
C      -42.56640000     -32.55770000     -70.01750000
S      -43.78000000     -36.40160000     -71.11260000
S      -42.29240000     -34.19180000     -69.35270000
H      -42.17030000     -31.66460000     -69.66270000
