40
Properties=species:S:1:pos:R:3 #=T CELL(abcABC):=T 1.889726e+02=T 90.00000=T Traj:=T positionsangstrom=T Step:=T 0=T Bead:=T pbc="F F F"
C      -46.42080000     -32.76830000     -68.86250000
C      -46.69250000     -31.85960000     -69.86910000
C      -47.40700000     -32.27970000     -71.02810000
C      -47.86680000     -33.56890000     -71.20150000
C      -47.57080000     -34.47840000     -70.20380000
C      -46.87470000     -34.05830000     -69.01360000
H      -45.85610000     -32.40340000     -67.98280000
H      -47.67380000     -31.57160000     -71.79530000
H      -47.85040000     -35.53350000     -70.29390000
H      -46.61950000     -34.88910000     -68.36440000
C      -48.78780000     -33.90710000     -72.37390000
H      -49.24680000     -32.99370000     -72.77060000
H      -49.65510000     -34.52890000     -72.16020000
C      -46.17190000     -30.43220000     -69.90010000
H      -46.84520000     -29.79500000     -70.54220000
H      -46.17230000     -30.04700000     -68.88660000
S      -47.85240000     -34.64390000     -73.74950000
S      -44.46590000     -30.07840000     -70.48820000
C      -46.53040000     -33.38330000     -74.17110000
H      -46.72230000     -32.96110000     -75.23570000
H      -46.75730000     -32.55380000     -73.54420000
C      -44.45220000     -30.71990000     -72.21630000
H      -44.49590000     -29.92230000     -72.87950000
H      -45.36870000     -31.31970000     -72.33850000
C      -43.16310000     -31.50540000     -72.41080000
H      -43.11420000     -31.83640000     -73.46510000
H      -42.13340000     -30.97450000     -72.42670000
C      -45.10290000     -34.00120000     -74.09780000
H      -44.41030000     -33.24360000     -74.33330000
H      -45.00880000     -34.74020000     -74.89880000
C      -44.67250000     -34.59220000     -72.74830000
C      -45.16100000     -35.76450000     -72.35560000
C      -43.87590000     -33.94840000     -71.67850000
H      -45.66400000     -36.39680000     -73.03730000
C      -43.59240000     -34.82360000     -70.65480000
C      -43.02550000     -32.70800000     -71.52400000
C      -42.33130000     -32.68690000     -70.33660000
S      -44.52310000     -36.37590000     -70.74290000
S      -42.52040000     -34.11130000     -69.37870000
H      -41.62750000     -31.94680000     -69.97030000
