40
Properties=species:S:1:pos:R:3 #=T CELL(abcABC):=T 1.889726e+02=T 90.00000=T Traj:=T positionsangstrom=T Step:=T 0=T Bead:=T pbc="F F F"
C      -46.99960000     -33.52980000     -69.50220000
C      -47.73650000     -32.62080000     -70.29830000
C      -48.12940000     -33.13450000     -71.52740000
C      -47.75040000     -34.44100000     -72.03190000
C      -47.06750000     -35.32140000     -71.17990000
C      -46.72660000     -34.84370000     -69.91590000
H      -46.62690000     -33.16200000     -68.55100000
H      -48.76730000     -32.50250000     -72.16970000
H      -46.69200000     -36.26630000     -71.50840000
H      -46.12330000     -35.51390000     -69.25680000
C      -48.11260000     -34.88060000     -73.42830000
H      -48.79890000     -34.21170000     -73.88760000
H      -48.55660000     -35.89770000     -73.36490000
C      -48.01810000     -31.27030000     -69.78730000
H      -48.73200000     -30.73980000     -70.44570000
H      -48.53050000     -31.27700000     -68.78380000
S      -46.61180000     -34.90240000     -74.50260000
S      -46.29970000     -30.43820000     -69.64780000
C      -45.79960000     -33.24800000     -74.19200000
H      -46.02490000     -32.57750000     -75.11190000
H      -46.26110000     -32.58810000     -73.39900000
C      -45.60570000     -30.58120000     -71.37030000
H      -45.87470000     -29.72530000     -72.06590000
H      -46.09930000     -31.45260000     -71.75060000
C      -44.09430000     -30.67020000     -71.44810000
H      -43.79380000     -30.69980000     -72.46220000
H      -43.57840000     -29.84570000     -71.01830000
C      -44.26030000     -33.31530000     -73.88090000
H      -43.94100000     -32.24710000     -73.90080000
H      -43.82200000     -33.75140000     -74.79240000
C      -43.79390000     -33.96250000     -72.62650000
C      -43.51640000     -35.30200000     -72.64770000
C      -43.52150000     -33.26960000     -71.33090000
H      -43.63750000     -35.99210000     -73.45950000
C      -43.19330000     -34.23090000     -70.36470000
C      -43.57270000     -31.95840000     -70.74520000
C      -43.22170000     -31.96240000     -69.40780000
S      -43.03030000     -35.85180000     -70.99690000
S      -42.77190000     -33.56040000     -68.83220000
H      -43.05250000     -31.14790000     -68.69620000
