40
Properties=species:S:1:pos:R:3 #=T CELL(abcABC):=T 1.889726e+02=T 90.00000=T Traj:=T positionsangstrom=T Step:=T 0=T Bead:=T pbc="F F F"
C      -46.64170000     -33.50060000     -69.07690000
C      -47.28750000     -32.48650000     -69.81220000
C      -47.83270000     -32.86010000     -71.06750000
C      -47.61340000     -34.17440000     -71.57590000
C      -46.89710000     -35.10780000     -70.79240000
C      -46.51320000     -34.82770000     -69.49550000
H      -46.32330000     -33.12090000     -68.08290000
H      -48.39320000     -32.19260000     -71.76440000
H      -46.76660000     -36.08930000     -71.33950000
H      -46.12050000     -35.59770000     -68.76800000
C      -48.22850000     -34.56690000     -72.95940000
H      -48.97350000     -33.83930000     -73.22330000
H      -48.76620000     -35.51920000     -72.99970000
C      -47.37970000     -30.99670000     -69.39120000
H      -48.22340000     -30.57440000     -69.95910000
H      -47.52910000     -30.80800000     -68.30610000
S      -46.86140000     -34.83490000     -74.24650000
S      -45.82230000     -29.98300000     -69.68670000
C      -45.97260000     -33.21600000     -74.26480000
H      -46.15970000     -32.71920000     -75.20520000
H      -46.29300000     -32.63060000     -73.41970000
C      -45.38460000     -30.41660000     -71.51090000
H      -45.70320000     -29.56930000     -72.19620000
H      -46.08540000     -31.19800000     -71.84240000
C      -43.91650000     -30.87450000     -71.70660000
H      -43.73310000     -30.98260000     -72.84140000
H      -43.21580000     -30.08870000     -71.36580000
C      -44.45010000     -33.36160000     -74.13420000
H      -44.03020000     -32.35030000     -74.25140000
H      -44.10890000     -33.98300000     -75.04630000
C      -43.98330000     -34.04100000     -72.89240000
C      -43.84300000     -35.40740000     -72.93470000
C      -43.66420000     -33.49320000     -71.61770000
H      -43.97970000     -36.01070000     -73.84780000
C      -43.29610000     -34.50260000     -70.70030000
C      -43.66100000     -32.17780000     -71.02130000
C      -43.60100000     -32.33580000     -69.64100000
S      -43.24680000     -36.06070000     -71.43470000
S      -43.17100000     -33.97340000     -69.05770000
H      -43.53290000     -31.49550000     -68.96880000
