40
Properties=species:S:1:pos:R:3 #=T CELL(abcABC):=T 1.889726e+02=T 90.00000=T Traj:=T positionsangstrom=T Step:=T 0=T Bead:=T pbc="F F F"
C      -46.63110000     -33.24830000     -68.99130000
C      -47.09910000     -32.29480000     -69.86750000
C      -47.52870000     -32.62580000     -71.13300000
C      -47.67530000     -33.98020000     -71.47780000
C      -47.19920000     -35.00370000     -70.63310000
C      -46.61080000     -34.60160000     -69.44660000
H      -46.13540000     -32.95710000     -68.08520000
H      -48.02620000     -31.86060000     -71.65640000
H      -47.26130000     -36.06200000     -70.81570000
H      -46.30820000     -35.37640000     -68.80410000
C      -48.43460000     -34.20340000     -72.70250000
H      -49.05740000     -33.41620000     -72.97660000
H      -49.10040000     -35.10740000     -72.56170000
C      -47.11920000     -30.88300000     -69.46200000
H      -47.91460000     -30.35980000     -70.01020000
H      -47.14450000     -30.85020000     -68.31960000
S      -47.19420000     -34.65840000     -74.14000000
S      -45.49150000     -30.03810000     -69.88300000
C      -46.01480000     -33.19220000     -74.17460000
H      -46.22250000     -32.62490000     -75.13950000
H      -46.25810000     -32.53360000     -73.30180000
C      -45.16560000     -30.38780000     -71.64830000
H      -45.30950000     -29.44080000     -72.20350000
H      -45.94620000     -31.03130000     -72.02160000
C      -43.79590000     -31.02920000     -71.86930000
H      -43.69350000     -31.18290000     -72.94960000
H      -43.01750000     -30.36280000     -71.54160000
C      -44.53180000     -33.62400000     -74.18480000
H      -43.86990000     -32.72700000     -74.32580000
H      -44.36880000     -34.28160000     -75.03900000
C      -44.09520000     -34.32070000     -72.96770000
C      -44.09640000     -35.68790000     -72.88250000
C      -43.70780000     -33.67860000     -71.69270000
H      -44.36310000     -36.45220000     -73.59410000
C      -43.45690000     -34.61240000     -70.70410000
C      -43.57740000     -32.34650000     -71.06590000
C      -43.10170000     -32.39330000     -69.78600000
S      -43.69120000     -36.26780000     -71.24280000
S      -42.88040000     -33.99340000     -69.15380000
H      -42.85340000     -31.56760000     -69.14170000
