40
Properties=species:S:1:pos:R:3 #=T CELL(abcABC):=T 1.889726e+02=T 90.00000=T Traj:=T positionsangstrom=T Step:=T 0=T Bead:=T pbc="F F F"
C      -43.42150000     -36.34720000     -69.79310000
C      -43.54960000     -35.07140000     -69.30440000
C      -42.91030000     -34.03150000     -69.98920000
C      -42.18240000     -34.24470000     -71.14570000
C      -42.04720000     -35.54180000     -71.64860000
C      -42.66590000     -36.57940000     -70.93230000
H      -43.84910000     -37.18570000     -69.23560000
H      -42.85340000     -33.07680000     -69.54060000
H      -41.40830000     -35.67190000     -72.48340000
H      -42.52330000     -37.59250000     -71.28440000
C      -41.31550000     -33.22040000     -71.82980000
H      -41.25190000     -33.34830000     -72.93090000
H      -40.34560000     -33.41260000     -71.58170000
C      -44.40630000     -34.86680000     -68.05580000
H      -43.89390000     -35.16960000     -67.10290000
H      -44.76850000     -33.82720000     -67.98440000
S      -41.71210000     -31.46730000     -71.48410000
S      -45.98150000     -35.82930000     -68.18260000
C      -43.31100000     -31.17670000     -72.48050000
H      -43.46740000     -30.09990000     -72.37460000
H      -42.94350000     -31.39590000     -73.48270000
C      -46.94520000     -34.58250000     -69.02690000
H      -46.86610000     -33.57640000     -68.64230000
H      -47.96720000     -34.94050000     -69.00230000
C      -46.49630000     -34.44310000     -70.49620000
H      -45.48480000     -34.02900000     -70.67110000
H      -46.31570000     -35.41730000     -70.90850000
C      -44.52540000     -32.00210000     -71.89040000
H      -44.56800000     -31.74250000     -70.83280000
H      -44.28820000     -33.04620000     -71.99260000
C      -45.82950000     -31.84560000     -72.53110000
C      -46.06210000     -30.82620000     -73.44740000
C      -47.01460000     -32.58280000     -72.29040000
H      -45.19330000     -30.19250000     -73.74000000
C      -48.13370000     -32.01230000     -72.94570000
C      -47.47920000     -33.65790000     -71.38780000
C      -48.76880000     -34.02430000     -71.53830000
S      -47.70360000     -30.66760000     -74.00310000
S      -49.57310000     -33.00400000     -72.78670000
H      -49.36640000     -34.81640000     -71.03800000
