40
Properties=species:S:1:pos:R:3 #=T CELL(abcABC):=T 1.889726e+02=T 90.00000=T Traj:=T positionsangstrom=T Step:=T 0=T Bead:=T pbc="F F F"
C      -46.64430000     -34.30300000     -69.51420000
C      -47.49990000     -33.44480000     -70.25000000
C      -47.86180000     -33.74790000     -71.57180000
C      -47.47240000     -34.99710000     -72.03230000
C      -46.73850000     -35.90390000     -71.25260000
C      -46.33470000     -35.59190000     -69.92200000
H      -46.36480000     -33.81780000     -68.54290000
H      -48.56630000     -33.05990000     -72.07080000
H      -46.39500000     -36.90090000     -71.62950000
H      -45.83900000     -36.26620000     -69.36020000
C      -47.65630000     -35.32480000     -73.50330000
H      -48.54540000     -34.74820000     -73.87990000
H      -47.87400000     -36.38500000     -73.55180000
C      -48.03750000     -32.19610000     -69.60810000
H      -48.95100000     -31.83470000     -70.17320000
H      -48.35720000     -32.47240000     -68.62080000
S      -46.24500000     -34.94330000     -74.57090000
S      -46.76350000     -30.81660000     -69.35940000
C      -45.87910000     -33.17970000     -74.09590000
H      -46.28690000     -32.57460000     -74.82150000
H      -46.41110000     -32.85580000     -73.19500000
C      -46.23500000     -30.51030000     -71.09280000
H      -46.65700000     -29.65070000     -71.54010000
H      -46.53230000     -31.33300000     -71.77130000
C      -44.68320000     -30.34500000     -71.15200000
H      -44.35820000     -30.11640000     -72.19900000
H      -44.39970000     -29.42490000     -70.55580000
C      -44.42890000     -32.83430000     -73.97260000
H      -44.30330000     -31.75230000     -73.97250000
H      -43.90450000     -33.23080000     -74.84330000
C      -43.75710000     -33.32270000     -72.71610000
C      -43.35150000     -34.63230000     -72.77560000
C      -43.57960000     -32.75110000     -71.40740000
H      -43.16660000     -35.28890000     -73.58540000
C      -43.06970000     -33.69800000     -70.53040000
C      -43.93760000     -31.51220000     -70.71730000
C      -43.63360000     -31.60740000     -69.37000000
S      -42.76710000     -35.24730000     -71.23400000
S      -42.99880000     -33.14530000     -68.94180000
H      -43.87160000     -30.77860000     -68.68050000
