40
Properties=species:S:1:pos:R:3 #=T CELL(abcABC):=T 1.889726e+02=T 90.00000=T Traj:=T positionsangstrom=T Step:=T 0=T Bead:=T pbc="F F F"
C      -46.22210000     -34.54510000     -69.23230000
C      -47.28810000     -33.72130000     -69.70050000
C      -47.73050000     -33.96740000     -71.04770000
C      -47.12650000     -34.97720000     -71.84940000
C      -46.02570000     -35.63390000     -71.37860000
C      -45.56180000     -35.49610000     -70.03360000
H      -45.77920000     -34.32940000     -68.26820000
H      -48.52380000     -33.40940000     -71.53190000
H      -45.50310000     -36.23400000     -72.07950000
H      -44.62110000     -36.03810000     -69.65810000
C      -47.62980000     -35.14090000     -73.24870000
H      -48.59500000     -34.59130000     -73.33750000
H      -47.85800000     -36.16290000     -73.45410000
C      -47.83450000     -32.58700000     -68.95590000
H      -48.88350000     -32.54530000     -69.03710000
H      -47.61980000     -32.73660000     -67.88280000
S      -46.42660000     -34.66870000     -74.57370000
S      -47.20160000     -30.85430000     -69.41690000
C      -45.84260000     -32.95610000     -74.21160000
H      -46.22660000     -32.32860000     -75.10340000
H      -46.45230000     -32.57430000     -73.37290000
C      -46.71150000     -30.88810000     -71.16070000
H      -47.29330000     -30.13630000     -71.75360000
H      -47.02890000     -31.82520000     -71.55010000
C      -45.21900000     -30.57640000     -71.40390000
H      -45.14920000     -30.43510000     -72.47050000
H      -44.90260000     -29.66640000     -70.86910000
C      -44.31080000     -32.70330000     -74.18880000
H      -44.06230000     -31.61980000     -74.22380000
H      -43.88520000     -33.20190000     -75.00320000
C      -43.69890000     -33.35760000     -72.90400000
C      -43.01460000     -34.56930000     -72.92610000
C      -43.79910000     -32.83650000     -71.53910000
H      -42.84550000     -35.06070000     -73.87630000
C      -43.15500000     -33.72090000     -70.63610000
C      -44.33390000     -31.65620000     -70.90040000
C      -44.06820000     -31.61570000     -69.49880000
S      -42.42750000     -35.08560000     -71.37340000
S      -43.21640000     -33.11350000     -69.01130000
H      -44.35150000     -30.81310000     -68.91840000
