40
Properties=species:S:1:pos:R:3 #=T CELL(abcABC):=T 1.889726e+02=T 90.00000=T Traj:=T positionsangstrom=T Step:=T 0=T Bead:=T pbc="F F F"
C      -47.14980000     -34.01980000     -69.34330000
C      -47.68600000     -33.08900000     -70.29680000
C      -47.80250000     -33.53600000     -71.66270000
C      -47.46850000     -34.84980000     -72.05620000
C      -46.87240000     -35.66220000     -71.06900000
C      -46.69690000     -35.20800000     -69.79780000
H      -47.00320000     -33.73380000     -68.31130000
H      -48.36160000     -32.91920000     -72.45370000
H      -46.45040000     -36.65710000     -71.35730000
H      -46.08190000     -35.81860000     -69.05800000
C      -47.69270000     -35.32290000     -73.51180000
H      -48.69090000     -34.88120000     -73.79240000
H      -47.83280000     -36.42170000     -73.54230000
C      -48.23810000     -31.67730000     -69.88940000
H      -48.93370000     -31.45040000     -70.74060000
H      -48.83760000     -31.66230000     -68.98380000
S      -46.35130000     -34.94570000     -74.67370000
S      -46.85130000     -30.30440000     -69.79890000
C      -45.80950000     -33.22050000     -74.32420000
H      -46.07020000     -32.61070000     -75.17920000
H      -46.51900000     -32.79510000     -73.51580000
C      -45.87010000     -30.76130000     -71.31180000
H      -46.26500000     -30.21200000     -72.16380000
H      -46.09490000     -31.78590000     -71.45350000
C      -44.35280000     -30.61390000     -71.21410000
H      -44.07200000     -30.40940000     -72.30760000
H      -44.18660000     -29.73330000     -70.54040000
C      -44.39470000     -33.00970000     -73.84050000
H      -44.26770000     -31.97580000     -73.84510000
H      -43.58780000     -33.36000000     -74.55400000
C      -43.99840000     -33.71160000     -72.51040000
C      -43.65390000     -34.99910000     -72.52780000
C      -43.50140000     -33.04570000     -71.26440000
H      -43.72170000     -35.48970000     -73.48790000
C      -42.92500000     -33.93250000     -70.37910000
C      -43.67640000     -31.75720000     -70.58430000
C      -43.19570000     -31.67250000     -69.31220000
S      -42.92130000     -35.57160000     -71.06310000
S      -42.59800000     -33.25270000     -68.76100000
H      -43.28430000     -30.83320000     -68.65620000
