40
Properties=species:S:1:pos:R:3 #=T CELL(abcABC):=T 1.889726e+02=T 90.00000=T Traj:=T positionsangstrom=T Step:=T 0=T Bead:=T pbc="F F F"
C      -46.18950000     -34.41030000     -69.18060000
C      -47.29590000     -33.83010000     -69.80940000
C      -47.76320000     -34.23170000     -71.11150000
C      -46.96240000     -35.11750000     -71.82610000
C      -45.85890000     -35.72100000     -71.25050000
C      -45.45940000     -35.35760000     -69.92900000
H      -45.95720000     -34.14460000     -68.16620000
H      -48.58890000     -33.86060000     -71.59890000
H      -45.27280000     -36.32170000     -71.87620000
H      -44.63570000     -36.00830000     -69.47500000
C      -47.46820000     -35.47910000     -73.25870000
H      -48.50090000     -35.00160000     -73.42770000
H      -47.56570000     -36.58440000     -73.42910000
C      -48.18770000     -32.86180000     -69.04690000
H      -49.23660000     -32.61740000     -69.40600000
H      -48.19130000     -33.19300000     -67.93310000
S      -46.38980000     -34.94820000     -74.58640000
S      -47.37380000     -31.13810000     -69.05850000
C      -46.23720000     -33.12850000     -74.23870000
H      -46.80040000     -32.62220000     -74.98280000
H      -46.60510000     -33.11630000     -73.21100000
C      -46.95700000     -30.83200000     -70.83070000
H      -47.54860000     -29.96150000     -71.24220000
H      -47.26750000     -31.64430000     -71.54000000
C      -45.44760000     -30.50810000     -71.02590000
H      -45.24190000     -30.21460000     -72.06120000
H      -45.25970000     -29.65340000     -70.37100000
C      -44.79870000     -32.49790000     -74.08600000
H      -44.86120000     -31.42050000     -73.83960000
H      -44.23330000     -32.49800000     -74.95070000
C      -43.92570000     -33.15540000     -72.93460000
C      -43.15290000     -34.24890000     -73.15710000
C      -43.92480000     -32.72620000     -71.56910000
H      -43.16410000     -34.77190000     -74.09540000
C      -42.98330000     -33.49510000     -70.83830000
C      -44.46270000     -31.59870000     -70.66290000
C      -43.83230000     -31.67230000     -69.43050000
S      -42.19580000     -34.73300000     -71.79210000
S      -42.70850000     -32.90500000     -69.24140000
H      -43.97180000     -30.91830000     -68.64720000
