40
Properties=species:S:1:pos:R:3 #=T CELL(abcABC):=T 1.889726e+02=T 90.00000=T Traj:=T positionsangstrom=T Step:=T 0=T Bead:=T pbc="F F F"
C      -46.19730000     -34.60900000     -68.97070000
C      -47.27060000     -34.14810000     -69.71090000
C      -47.52030000     -34.64960000     -70.99850000
C      -46.63620000     -35.54050000     -71.61810000
C      -45.60990000     -36.04550000     -70.79680000
C      -45.42390000     -35.64570000     -69.49450000
H      -46.07280000     -34.19670000     -67.95640000
H      -48.39460000     -34.29250000     -71.49380000
H      -45.05340000     -36.85860000     -71.28510000
H      -44.63390000     -36.14410000     -68.92080000
C      -46.86230000     -35.97790000     -73.01650000
H      -47.88290000     -36.08130000     -73.29970000
H      -46.30510000     -36.82950000     -73.10750000
C      -48.21530000     -33.20270000     -69.16670000
H      -48.99420000     -33.02870000     -69.89570000
H      -48.60030000     -33.47430000     -68.23600000
S      -46.21370000     -34.76980000     -74.31260000
S      -47.41110000     -31.58780000     -68.84560000
C      -46.70460000     -33.13170000     -73.72740000
H      -47.52710000     -32.65450000     -74.29270000
H      -46.91960000     -33.10370000     -72.68220000
C      -47.03540000     -31.05780000     -70.63120000
H      -47.75230000     -30.25530000     -70.88110000
H      -47.38730000     -31.91440000     -71.29210000
C      -45.62280000     -30.50190000     -70.94130000
H      -45.69580000     -30.11150000     -71.96820000
H      -45.37290000     -29.63010000     -70.32210000
C      -45.48010000     -32.21320000     -73.99810000
H      -45.75500000     -31.16990000     -73.76010000
H      -45.33870000     -32.15830000     -75.11400000
C      -44.22770000     -32.62260000     -73.15400000
C      -43.37140000     -33.56950000     -73.64400000
C      -43.96380000     -32.33230000     -71.77750000
H      -43.39980000     -34.05250000     -74.55530000
C      -42.95250000     -33.09590000     -71.26050000
C      -44.51350000     -31.50820000     -70.68780000
C      -43.88690000     -31.74960000     -69.48320000
S      -42.19100000     -34.13440000     -72.45030000
S      -42.55750000     -32.87370000     -69.56860000
H      -44.19060000     -31.31690000     -68.53800000
