40
Properties=species:S:1:pos:R:3 #=T CELL(abcABC):=T 1.889726e+02=T 90.00000=T Traj:=T positionsangstrom=T Step:=T 0=T Bead:=T pbc="F F F"
C      -45.94780000     -34.84610000     -68.83630000
C      -47.08130000     -34.25310000     -69.43890000
C      -47.43600000     -34.61510000     -70.68650000
C      -46.66030000     -35.45440000     -71.49990000
C      -45.44210000     -35.91340000     -70.99570000
C      -45.06560000     -35.57520000     -69.67380000
H      -45.65390000     -34.61730000     -67.78640000
H      -48.36690000     -34.24860000     -71.09270000
H      -44.71150000     -36.33640000     -71.65870000
H      -44.08930000     -35.97370000     -69.35670000
C      -47.12310000     -35.84440000     -72.86910000
H      -48.19500000     -35.72520000     -72.94740000
H      -46.91680000     -36.91310000     -73.07790000
C      -47.99230000     -33.31550000     -68.71370000
H      -48.98110000     -33.43220000     -69.10870000
H      -48.09600000     -33.60220000     -67.65850000
S      -46.30300000     -34.90810000     -74.34220000
S      -47.42830000     -31.52380000     -68.71640000
C      -46.64040000     -33.17100000     -73.80430000
H      -47.58610000     -32.82440000     -74.20440000
H      -46.90250000     -33.21360000     -72.68250000
C      -47.33710000     -31.21930000     -70.54480000
H      -48.08510000     -30.39740000     -70.76310000
H      -47.52280000     -32.08190000     -71.13260000
C      -45.89810000     -30.79520000     -70.86150000
H      -46.00340000     -30.23570000     -71.82500000
H      -45.66250000     -29.94420000     -70.18470000
C      -45.52910000     -32.15480000     -74.01380000
H      -45.76440000     -31.18210000     -73.61390000
H      -45.21440000     -32.13180000     -75.05560000
C      -44.34700000     -32.58540000     -73.20460000
C      -43.36610000     -33.31350000     -73.81310000
C      -44.07150000     -32.41910000     -71.80980000
H      -43.21640000     -33.41720000     -74.94530000
C      -42.84320000     -33.02990000     -71.40500000
C      -44.72440000     -31.75030000     -70.70950000
C      -44.09760000     -31.92500000     -69.49030000
S      -42.01190000     -33.75640000     -72.79110000
S      -42.58830000     -32.94610000     -69.65470000
H      -44.34610000     -31.45350000     -68.51960000
