40
Properties=species:S:1:pos:R:3 #=T CELL(abcABC):=T 1.889726e+02=T 90.00000=T Traj:=T positionsangstrom=T Step:=T 0=T Bead:=T pbc="F F F"
C      -45.07990000     -35.04270000     -69.39200000
C      -46.38990000     -34.77590000     -69.74070000
C      -46.83750000     -35.17870000     -70.94800000
C      -46.05520000     -35.84000000     -71.86220000
C      -44.74490000     -36.09580000     -71.50600000
C      -44.24820000     -35.76170000     -70.25140000
H      -44.77920000     -34.83910000     -68.35680000
H      -47.86790000     -34.81810000     -71.26210000
H      -44.07740000     -36.62590000     -72.18060000
H      -43.20120000     -35.99930000     -70.09260000
C      -46.67060000     -36.15170000     -73.28520000
H      -47.70660000     -36.45230000     -73.10950000
H      -46.11860000     -36.87540000     -73.87270000
C      -47.45300000     -34.19000000     -68.72110000
H      -48.41100000     -34.22690000     -69.19770000
H      -47.24240000     -34.66930000     -67.78610000
S      -46.61040000     -34.90610000     -74.59160000
S      -47.15140000     -32.37880000     -68.45680000
C      -47.24380000     -33.33000000     -73.82230000
H      -47.99070000     -33.03040000     -74.55450000
H      -47.72010000     -33.49690000     -72.82980000
C      -47.48160000     -31.65180000     -70.04700000
H      -48.46660000     -31.17760000     -69.97650000
H      -47.43960000     -32.33160000     -70.84760000
C      -46.41130000     -30.62750000     -70.45070000
H      -46.63930000     -30.20610000     -71.43610000
H      -46.34110000     -29.72690000     -69.72510000
C      -46.23800000     -32.22240000     -73.63300000
H      -46.64850000     -31.28660000     -73.17160000
H      -45.85290000     -32.03550000     -74.63520000
C      -44.95160000     -32.57420000     -72.82760000
C      -43.94660000     -33.21520000     -73.55190000
C      -44.43260000     -32.05170000     -71.56640000
H      -43.96800000     -33.79000000     -74.39490000
C      -43.15040000     -32.42710000     -71.25770000
C      -44.96680000     -31.20370000     -70.52980000
C      -44.08470000     -31.00720000     -69.48090000
S      -42.45850000     -33.48760000     -72.50880000
S      -42.58630000     -31.79510000     -69.74510000
H      -44.22630000     -30.27490000     -68.61470000
