40
Properties=species:S:1:pos:R:3 #=T CELL(abcABC):=T 1.889726e+02=T 90.00000=T Traj:=T positionsangstrom=T Step:=T 0=T Bead:=T pbc="F F F"
C      -45.29910000     -34.95850000     -69.01920000
C      -46.68340000     -34.64500000     -69.26350000
C      -47.18190000     -34.98040000     -70.51640000
C      -46.36880000     -35.57850000     -71.56180000
C      -45.07590000     -35.87330000     -71.25140000
C      -44.54630000     -35.59220000     -70.00700000
H      -44.82050000     -34.80710000     -68.07500000
H      -48.25490000     -34.92930000     -70.63600000
H      -44.43310000     -36.30370000     -71.99170000
H      -43.53070000     -35.88700000     -69.84900000
C      -47.10720000     -35.96990000     -72.85130000
H      -48.13440000     -35.83810000     -72.64650000
H      -46.83960000     -37.00750000     -73.09530000
C      -47.56120000     -33.81870000     -68.28930000
H      -48.66450000     -34.04390000     -68.39000000
H      -47.25130000     -33.97860000     -67.18390000
S      -46.71330000     -34.98260000     -74.41950000
S      -47.28340000     -31.96370000     -68.46920000
C      -46.80030000     -33.16040000     -74.03940000
H      -47.67810000     -32.90420000     -74.64390000
H      -47.13910000     -33.19190000     -72.93400000
C      -47.61560000     -31.55200000     -70.26970000
H      -48.42590000     -30.80400000     -70.32940000
H      -48.03260000     -32.36570000     -70.78500000
C      -46.39050000     -30.88320000     -70.96920000
H      -46.79680000     -30.86080000     -71.98500000
H      -46.33570000     -29.85080000     -70.60910000
C      -45.63170000     -32.23030000     -74.14830000
H      -46.02000000     -31.24260000     -73.95430000
H      -45.25760000     -32.18600000     -75.17730000
C      -44.38990000     -32.58360000     -73.29210000
C      -43.26060000     -33.13330000     -73.86910000
C      -44.27020000     -32.30230000     -71.85240000
H      -43.19540000     -33.49810000     -74.84570000
C      -42.96910000     -32.69860000     -71.43540000
C      -45.04410000     -31.58120000     -70.83950000
C      -44.36160000     -31.43830000     -69.63220000
S      -42.01330000     -33.56430000     -72.65490000
S      -42.70230000     -32.23360000     -69.67540000
H      -44.84730000     -30.92390000     -68.78500000
