40
Properties=species:S:1:pos:R:3 #=T CELL(abcABC):=T 1.889726e+02=T 90.00000=T Traj:=T positionsangstrom=T Step:=T 0=T Bead:=T pbc="F F F"
C      -48.61240000     -34.49260000     -71.47080000
C      -48.07480000     -34.33710000     -72.74280000
C      -47.83650000     -33.06600000     -73.25280000
C      -48.14100000     -31.86820000     -72.57160000
C      -48.65980000     -31.98920000     -71.30290000
C      -48.88930000     -33.32490000     -70.75780000
H      -48.92530000     -35.48160000     -71.14020000
H      -47.45880000     -32.94730000     -74.29250000
H      -48.85480000     -31.01550000     -70.72210000
H      -49.34610000     -33.45090000     -69.79410000
C      -47.78800000     -30.51280000     -73.15200000
H      -48.09870000     -29.67850000     -72.55820000
H      -48.27160000     -30.40030000     -74.11410000
C      -47.76660000     -35.58280000     -73.57420000
H      -47.93930000     -36.48670000     -72.99020000
H      -48.52560000     -35.76570000     -74.41020000
S      -45.92720000     -30.30770000     -73.45610000
S      -45.89890000     -35.63550000     -73.93610000
C      -45.33460000     -30.65070000     -71.68340000
H      -44.64210000     -29.82640000     -71.45640000
H      -46.21840000     -30.50020000     -71.04400000
C      -45.26440000     -35.51090000     -72.23460000
H      -45.26600000     -36.52720000     -71.70380000
H      -45.78680000     -34.71730000     -71.71960000
C      -43.80350000     -35.11480000     -72.30220000
H      -43.29200000     -35.95980000     -72.84880000
H      -43.62680000     -34.24160000     -72.88840000
C      -44.65220000     -31.95750000     -71.61050000
H      -43.67120000     -31.96020000     -72.18000000
H      -45.30270000     -32.80600000     -71.89080000
C      -44.03880000     -32.38110000     -70.31040000
C      -43.98090000     -31.65530000     -69.15010000
C      -43.41380000     -33.68300000     -70.10370000
H      -44.33910000     -30.61940000     -69.03520000
C      -42.94300000     -33.78280000     -68.81690000
C      -43.20130000     -34.85960000     -70.94530000
C      -42.59190000     -35.79960000     -70.17810000
S      -43.21190000     -32.50160000     -67.78320000
S      -42.12600000     -35.24880000     -68.60470000
H      -42.49590000     -36.76280000     -70.52600000
