40
Properties=species:S:1:pos:R:3 #=T CELL(abcABC):=T 1.889726e+02=T 90.00000=T Traj:=T positionsangstrom=T Step:=T 0=T Bead:=T pbc="F F F"
C      -45.37650000     -34.93190000     -69.42350000
C      -46.77090000     -34.78050000     -69.65030000
C      -47.28900000     -35.16250000     -70.94550000
C      -46.44760000     -35.79370000     -71.85520000
C      -45.03240000     -35.98040000     -71.59060000
C      -44.55600000     -35.68370000     -70.31310000
H      -44.99710000     -34.65610000     -68.47430000
H      -48.33730000     -35.01700000     -71.05050000
H      -44.55450000     -36.51530000     -72.28630000
H      -43.56870000     -35.78380000     -70.00780000
C      -46.94270000     -36.13860000     -73.24280000
H      -48.02680000     -36.22890000     -73.13380000
H      -46.72110000     -37.16440000     -73.56220000
C      -47.57820000     -34.11280000     -68.56550000
H      -48.63500000     -34.16120000     -68.88610000
H      -47.59040000     -34.60150000     -67.56650000
S      -46.61280000     -34.95920000     -74.50520000
S      -47.14300000     -32.28800000     -68.38480000
C      -47.18600000     -33.35050000     -73.69710000
H      -48.02760000     -32.98110000     -74.29440000
H      -47.62300000     -33.63270000     -72.68310000
C      -47.39350000     -31.74370000     -70.17770000
H      -48.37170000     -31.23300000     -70.29600000
H      -47.43850000     -32.69540000     -70.72870000
C      -46.30220000     -30.73280000     -70.60010000
H      -46.61870000     -30.34350000     -71.62980000
H      -46.43330000     -29.92890000     -69.90180000
C      -45.90610000     -32.37560000     -73.83290000
H      -46.24110000     -31.35870000     -73.61550000
H      -45.68020000     -32.37240000     -74.94510000
C      -44.70840000     -32.67010000     -72.93260000
C      -43.71020000     -33.50230000     -73.36320000
C      -44.26290000     -32.06520000     -71.65170000
H      -43.68480000     -34.09380000     -74.24510000
C      -42.94530000     -32.35960000     -71.28340000
C      -44.89360000     -31.23730000     -70.59910000
C      -43.97910000     -30.94710000     -69.59670000
S      -42.22430000     -33.47760000     -72.48280000
S      -42.42570000     -31.72380000     -69.75960000
H      -44.24360000     -30.24790000     -68.81200000
