40
Properties=species:S:1:pos:R:3 #=T CELL(abcABC):=T 1.889726e+02=T 90.00000=T Traj:=T positionsangstrom=T Step:=T 0=T Bead:=T pbc="F F F"
C      -45.29850000     -35.00990000     -69.44040000
C      -46.76470000     -34.86960000     -69.58010000
C      -47.34530000     -35.29280000     -70.75010000
C      -46.60450000     -35.83760000     -71.78760000
C      -45.21350000     -36.13390000     -71.62590000
C      -44.59810000     -35.64600000     -70.45290000
H      -44.83850000     -34.37610000     -68.66400000
H      -48.40970000     -35.09000000     -70.94330000
H      -44.65470000     -36.49520000     -72.46630000
H      -43.52330000     -35.69310000     -70.28800000
C      -47.28360000     -36.22440000     -73.03820000
H      -48.38090000     -36.18300000     -73.08000000
H      -46.88520000     -37.21790000     -73.41610000
C      -47.59980000     -34.04580000     -68.62220000
H      -48.62900000     -34.13500000     -68.80250000
H      -47.47560000     -34.27220000     -67.54260000
S      -46.60510000     -35.03660000     -74.36110000
S      -47.09220000     -32.20070000     -68.62640000
C      -46.97230000     -33.44590000     -73.58030000
H      -47.85590000     -33.01650000     -74.10340000
H      -47.14090000     -33.53560000     -72.52540000
C      -47.33350000     -31.69280000     -70.33060000
H      -48.39010000     -31.50240000     -70.72840000
H      -47.11770000     -32.59610000     -70.88680000
C      -46.30380000     -30.56820000     -70.57270000
H      -46.49760000     -29.81010000     -71.37430000
H      -46.34400000     -29.92680000     -69.69500000
C      -45.86270000     -32.36610000     -73.83130000
H      -46.21290000     -31.37990000     -73.52790000
H      -45.73920000     -32.35430000     -74.88890000
C      -44.55770000     -32.52170000     -73.03930000
C      -43.57990000     -33.33410000     -73.54260000
C      -44.24890000     -32.05500000     -71.66560000
H      -43.51020000     -33.73460000     -74.58820000
C      -42.97040000     -32.43090000     -71.26970000
C      -44.90010000     -31.19960000     -70.66770000
C      -44.09430000     -31.04520000     -69.52440000
S      -42.09410000     -33.38170000     -72.47590000
S      -42.54630000     -31.81310000     -69.66430000
H      -44.35720000     -30.41440000     -68.74340000
