40
Properties=species:S:1:pos:R:3 #=T CELL(abcABC):=T 1.889726e+02=T 90.00000=T Traj:=T positionsangstrom=T Step:=T 0=T Bead:=T pbc="F F F"
C      -45.28860000     -34.97560000     -69.41350000
C      -46.68110000     -34.90540000     -69.46890000
C      -47.34670000     -35.34710000     -70.63220000
C      -46.60670000     -35.88050000     -71.67310000
C      -45.23380000     -36.19060000     -71.53830000
C      -44.57250000     -35.66840000     -70.43310000
H      -44.69310000     -34.67310000     -68.52390000
H      -48.45990000     -35.26330000     -70.67500000
H      -44.63130000     -36.75230000     -72.32430000
H      -43.50330000     -35.95440000     -70.26470000
C      -47.29290000     -36.18720000     -72.99620000
H      -48.37310000     -36.00300000     -73.04230000
H      -47.02070000     -37.16360000     -73.35600000
C      -47.47690000     -33.98460000     -68.51300000
H      -48.59660000     -34.20260000     -68.65050000
H      -47.22370000     -34.15460000     -67.45330000
S      -46.52510000     -35.08630000     -74.25990000
S      -47.14850000     -32.12080000     -68.63070000
C      -46.84410000     -33.33670000     -73.54890000
H      -47.89140000     -33.08120000     -73.95320000
H      -46.92110000     -33.51730000     -72.49190000
C      -47.46430000     -31.46860000     -70.32540000
H      -48.33840000     -30.92290000     -70.19570000
H      -47.52700000     -32.36190000     -70.85800000
C      -46.32010000     -30.66080000     -70.92670000
H      -46.46990000     -30.39160000     -71.95280000
H      -46.40840000     -29.67900000     -70.41970000
C      -45.77870000     -32.26240000     -73.93540000
H      -46.30110000     -31.28020000     -73.70370000
H      -45.44920000     -32.26190000     -74.96180000
C      -44.49310000     -32.43110000     -73.12400000
C      -43.44920000     -33.14080000     -73.62440000
C      -44.27410000     -32.03910000     -71.73860000
H      -43.35400000     -33.39230000     -74.71480000
C      -43.02940000     -32.48100000     -71.28230000
C      -44.96360000     -31.22140000     -70.76680000
C      -44.19120000     -31.06890000     -69.59820000
S      -42.13780000     -33.44700000     -72.49520000
S      -42.61650000     -31.95520000     -69.66090000
H      -44.61680000     -30.64020000     -68.70720000
