40
Properties=species:S:1:pos:R:3 #=T CELL(abcABC):=T 1.889726e+02=T 90.00000=T Traj:=T positionsangstrom=T Step:=T 0=T Bead:=T pbc="F F F"
C      -47.90910000     -34.49690000     -73.83640000
C      -47.93250000     -33.15420000     -73.48080000
C      -46.84740000     -32.33530000     -73.77930000
C      -45.77230000     -32.91660000     -74.49190000
C      -45.78630000     -34.26380000     -74.86640000
C      -46.84360000     -35.05460000     -74.43530000
H      -48.76660000     -35.19570000     -73.59660000
H      -46.81060000     -31.21520000     -73.47970000
H      -44.89420000     -34.57740000     -75.33120000
H      -46.86100000     -36.12780000     -74.60210000
C      -44.63820000     -31.94470000     -75.00610000
H      -45.07600000     -31.34970000     -75.87110000
H      -43.79740000     -32.56660000     -75.45820000
C      -49.10970000     -32.63760000     -72.75190000
H      -49.18400000     -31.51170000     -72.66000000
H      -50.08650000     -32.91330000     -73.09250000
S      -43.99050000     -30.83380000     -73.65500000
S      -49.09870000     -33.18280000     -71.01170000
C      -43.43710000     -32.05780000     -72.37410000
H      -43.74350000     -33.04240000     -72.66300000
H      -42.31450000     -32.10760000     -72.25360000
C      -47.32490000     -32.93050000     -70.38580000
H      -47.39280000     -32.68080000     -69.35810000
H      -46.94670000     -32.09320000     -70.85860000
C      -46.46950000     -34.16020000     -70.71890000
H      -47.21240000     -35.04240000     -70.88200000
H      -46.12100000     -33.91400000     -71.76020000
C      -43.96680000     -31.63440000     -71.01250000
H      -45.08730000     -31.63770000     -71.02430000
H      -43.76810000     -30.56170000     -70.89480000
C      -43.52790000     -32.57820000     -69.89720000
C      -42.47260000     -32.22730000     -69.06850000
C      -44.16530000     -33.79870000     -69.43920000
H      -41.85360000     -31.32730000     -69.33840000
C      -43.39200000     -34.48310000     -68.45030000
C      -45.32920000     -34.53460000     -69.83020000
C      -45.28280000     -35.80760000     -69.41670000
S      -42.04340000     -33.53560000     -67.90100000
S      -44.01660000     -36.12310000     -68.32420000
H      -46.01620000     -36.53800000     -69.68950000
