40
Properties=species:S:1:pos:R:3 #=T CELL(abcABC):=T 1.889726e+02=T 90.00000=T Traj:=T positionsangstrom=T Step:=T 0=T Bead:=T pbc="F F F"
C      -44.57640000     -34.97300000     -69.41430000
C      -45.94360000     -35.20700000     -69.42060000
C      -46.60600000     -35.42820000     -70.62850000
C      -45.87180000     -35.73620000     -71.79760000
C      -44.45860000     -35.72940000     -71.76960000
C      -43.83870000     -35.29590000     -70.58330000
H      -44.01770000     -34.73040000     -68.53710000
H      -47.68340000     -35.53100000     -70.75310000
H      -43.81160000     -35.98440000     -72.60850000
H      -42.77330000     -35.28290000     -70.51010000
C      -46.66690000     -36.09310000     -72.95830000
H      -47.71380000     -36.30360000     -72.71500000
H      -46.15000000     -36.93770000     -73.43000000
C      -46.81480000     -34.99310000     -68.20800000
H      -47.87170000     -35.27730000     -68.30980000
H      -46.35770000     -35.48290000     -67.35070000
S      -46.84420000     -34.67960000     -74.17050000
S      -46.70330000     -33.23660000     -67.88540000
C      -47.43980000     -33.30150000     -73.10760000
H      -48.50290000     -33.33950000     -73.23940000
H      -47.28000000     -33.49030000     -72.06210000
C      -47.48610000     -32.35570000     -69.35830000
H      -48.45160000     -32.03750000     -69.17700000
H      -47.58060000     -33.11450000     -70.19810000
C      -46.60610000     -31.22940000     -69.91860000
H      -47.18450000     -30.70690000     -70.65860000
H      -46.41680000     -30.58860000     -68.98880000
C      -46.78730000     -31.99060000     -73.44670000
H      -47.13670000     -31.32820000     -72.69920000
H      -47.12980000     -31.63710000     -74.43550000
C      -45.29960000     -32.09710000     -73.22200000
C      -44.35750000     -32.35700000     -74.17470000
C      -44.74490000     -31.90710000     -71.83710000
H      -44.49710000     -32.41340000     -75.21420000
C      -43.35510000     -32.07300000     -71.87810000
C      -45.22520000     -31.64910000     -70.48480000
C      -44.15420000     -31.67280000     -69.60060000
S      -42.71390000     -32.38000000     -73.54290000
S      -42.59840000     -31.86870000     -70.30910000
H      -44.27780000     -31.64670000     -68.58380000
