40
Properties=species:S:1:pos:R:3 #=T CELL(abcABC):=T 1.889726e+02=T 90.00000=T Traj:=T positionsangstrom=T Step:=T 0=T Bead:=T pbc="F F F"
C      -44.42160000     -34.90270000     -69.40890000
C      -45.82720000     -34.85890000     -69.36080000
C      -46.55450000     -35.23450000     -70.49840000
C      -45.89930000     -35.75950000     -71.63840000
C      -44.52890000     -35.94850000     -71.61290000
C      -43.76640000     -35.49150000     -70.51620000
H      -43.81830000     -34.59180000     -68.60980000
H      -47.65140000     -35.02560000     -70.55190000
H      -44.09120000     -36.38910000     -72.50110000
H      -42.69360000     -35.63120000     -70.37500000
C      -46.63160000     -36.16200000     -72.85940000
H      -47.65790000     -36.49480000     -72.63750000
H      -46.16330000     -36.95020000     -73.43390000
C      -46.48410000     -34.45550000     -68.14130000
H      -47.45220000     -35.07690000     -68.01990000
H      -45.80650000     -34.41900000     -67.24160000
S      -46.73520000     -34.78370000     -74.16260000
S      -47.03910000     -32.68600000     -68.07650000
C      -47.42200000     -33.35870000     -73.39610000
H      -48.48370000     -33.07250000     -73.73750000
H      -47.51780000     -33.49150000     -72.35040000
C      -47.61710000     -32.08400000     -69.72290000
H      -48.62330000     -31.65370000     -69.44950000
H      -47.74990000     -32.92430000     -70.32580000
C      -46.69190000     -31.01580000     -70.22200000
H      -47.07050000     -30.51500000     -71.05530000
H      -46.57580000     -30.23220000     -69.47700000
C      -46.56920000     -31.99060000     -73.69290000
H      -47.18820000     -31.27420000     -73.24570000
H      -46.58920000     -31.72520000     -74.71440000
C      -45.18470000     -32.14840000     -73.23770000
C      -44.18460000     -32.62690000     -74.06430000
C      -44.73670000     -31.83590000     -71.90890000
H      -44.24350000     -32.77880000     -75.12460000
C      -43.42950000     -32.30170000     -71.79980000
C      -45.26300000     -31.47070000     -70.57470000
C      -44.26250000     -31.64720000     -69.58870000
S      -42.64610000     -32.86790000     -73.27330000
S      -42.75230000     -32.19310000     -70.16920000
H      -44.53780000     -31.43590000     -68.62740000
