40
Properties=species:S:1:pos:R:3 #=T CELL(abcABC):=T 1.889726e+02=T 90.00000=T Traj:=T positionsangstrom=T Step:=T 0=T Bead:=T pbc="F F F"
C      -44.21590000     -35.00050000     -69.54010000
C      -45.61240000     -35.10730000     -69.42160000
C      -46.37350000     -35.36320000     -70.55690000
C      -45.79980000     -35.79130000     -71.80420000
C      -44.40930000     -35.74550000     -71.91560000
C      -43.65890000     -35.24580000     -70.80840000
H      -43.59460000     -34.58540000     -68.76450000
H      -47.45380000     -35.41000000     -70.39470000
H      -43.84370000     -36.02640000     -72.80350000
H      -42.67840000     -35.01200000     -70.94080000
C      -46.69450000     -36.22140000     -72.97910000
H      -47.72140000     -36.47740000     -72.73230000
H      -46.38070000     -37.11250000     -73.50110000
C      -46.32940000     -34.89520000     -68.14580000
H      -47.30460000     -35.34790000     -68.03280000
H      -45.70060000     -35.31780000     -67.32030000
S      -46.83200000     -34.90070000     -74.23660000
S      -46.26620000     -33.08920000     -67.77380000
C      -47.66580000     -33.58910000     -73.29910000
H      -48.74230000     -33.47610000     -73.53510000
H      -47.57510000     -34.04120000     -72.30460000
C      -47.28280000     -32.52830000     -69.15860000
H      -48.19090000     -32.21520000     -68.69800000
H      -47.47680000     -33.37860000     -69.92460000
C      -46.68010000     -31.27100000     -69.77410000
H      -47.40110000     -30.80350000     -70.44160000
H      -46.52010000     -30.48830000     -68.99010000
C      -47.05860000     -32.16380000     -73.26090000
H      -47.57350000     -31.67230000     -72.38850000
H      -47.39960000     -31.69060000     -74.23310000
C      -45.60810000     -32.20210000     -73.00330000
C      -44.77050000     -32.45730000     -74.04850000
C      -44.95000000     -31.97490000     -71.76050000
H      -44.95940000     -32.51060000     -75.12470000
C      -43.58640000     -32.08550000     -71.89150000
C      -45.35250000     -31.47730000     -70.45620000
C      -44.20800000     -31.11990000     -69.76350000
S      -43.08500000     -32.59830000     -73.48500000
S      -42.66890000     -31.50100000     -70.51650000
H      -44.27780000     -30.88630000     -68.66410000
