40
Properties=species:S:1:pos:R:3 #=T CELL(abcABC):=T 1.889726e+02=T 90.00000=T Traj:=T positionsangstrom=T Step:=T 0=T Bead:=T pbc="F F F"
C      -44.24520000     -35.35750000     -69.47270000
C      -45.65760000     -35.22590000     -69.40890000
C      -46.42310000     -35.56420000     -70.54270000
C      -45.76080000     -35.85770000     -71.78690000
C      -44.36980000     -35.77120000     -71.84620000
C      -43.67000000     -35.44860000     -70.72250000
H      -43.65660000     -35.27850000     -68.55230000
H      -47.47970000     -35.56050000     -70.54770000
H      -43.95000000     -35.78490000     -72.86960000
H      -42.58760000     -35.57520000     -70.81590000
C      -46.52670000     -36.22760000     -73.07320000
H      -47.50510000     -36.71580000     -72.87780000
H      -45.85570000     -36.86460000     -73.68000000
C      -46.35210000     -34.79950000     -68.07880000
H      -47.35150000     -35.28950000     -68.02620000
H      -45.68870000     -35.10920000     -67.27430000
S      -46.81220000     -34.82560000     -74.23580000
S      -46.64230000     -32.99860000     -67.64940000
C      -47.74690000     -33.60960000     -73.17410000
H      -48.80040000     -33.57620000     -73.52510000
H      -47.79740000     -34.05110000     -72.11640000
C      -47.35300000     -32.26890000     -69.26080000
H      -48.38380000     -31.95510000     -69.09560000
H      -47.48230000     -33.03560000     -70.00880000
C      -46.56810000     -31.13170000     -69.98810000
H      -47.19200000     -31.02340000     -70.83770000
H      -46.52300000     -30.20000000     -69.39160000
C      -47.08700000     -32.21730000     -73.29620000
H      -47.59830000     -31.46650000     -72.69080000
H      -47.19100000     -31.90080000     -74.31700000
C      -45.62070000     -32.27520000     -72.96000000
C      -44.74430000     -32.55120000     -73.98640000
C      -44.83530000     -31.85740000     -71.80370000
H      -45.02590000     -32.74210000     -75.02890000
C      -43.47030000     -31.94120000     -72.01190000
C      -45.20230000     -31.41180000     -70.45460000
C      -44.06800000     -31.31060000     -69.67570000
S      -43.08580000     -32.45250000     -73.56230000
S      -42.54090000     -31.57190000     -70.53550000
H      -44.05750000     -30.97370000     -68.58350000
