40
Properties=species:S:1:pos:R:3 #=T CELL(abcABC):=T 1.889726e+02=T 90.00000=T Traj:=T positionsangstrom=T Step:=T 0=T Bead:=T pbc="F F F"
C      -44.35400000     -35.07980000     -69.51460000
C      -45.75790000     -35.12640000     -69.44630000
C      -46.49830000     -35.45160000     -70.63140000
C      -45.80060000     -35.84700000     -71.79800000
C      -44.38540000     -35.94880000     -71.73390000
C      -43.68370000     -35.49450000     -70.62710000
H      -43.78560000     -34.70730000     -68.65970000
H      -47.58050000     -35.62920000     -70.68200000
H      -43.84900000     -36.35120000     -72.58960000
H      -42.56740000     -35.45330000     -70.67390000
C      -46.65050000     -36.21430000     -72.93370000
H      -47.53360000     -36.65130000     -72.49650000
H      -46.18440000     -37.00560000     -73.56440000
C      -46.58590000     -34.90650000     -68.27130000
H      -47.61210000     -35.16790000     -68.51810000
H      -46.31110000     -35.48370000     -67.39980000
S      -47.00130000     -34.85700000     -74.20310000
S      -46.66360000     -33.09390000     -67.98170000
C      -47.70040000     -33.54550000     -73.02420000
H      -48.69520000     -33.47280000     -73.27990000
H      -47.66080000     -33.83660000     -72.00010000
C      -47.34180000     -32.38640000     -69.56500000
H      -48.43930000     -32.12420000     -69.43130000
H      -47.13130000     -33.02210000     -70.38290000
C      -46.51290000     -31.11400000     -69.78310000
H      -47.06080000     -30.29110000     -70.41310000
H      -46.33220000     -30.58690000     -68.83260000
C      -46.96620000     -32.18100000     -73.14290000
H      -47.42670000     -31.61520000     -72.29240000
H      -47.24220000     -31.67000000     -74.10310000
C      -45.44160000     -32.11400000     -73.02140000
C      -44.56920000     -32.23130000     -74.06830000
C      -44.80350000     -31.86260000     -71.77060000
H      -44.82100000     -32.51660000     -75.09930000
C      -43.43390000     -32.01790000     -71.91150000
C      -45.16020000     -31.45430000     -70.42800000
C      -44.05720000     -31.51590000     -69.56380000
S      -42.88550000     -32.28180000     -73.51940000
S      -42.52950000     -31.75460000     -70.43370000
H      -43.90840000     -31.09860000     -68.57290000
