40
Properties=species:S:1:pos:R:3 #=T CELL(abcABC):=T 1.889726e+02=T 90.00000=T Traj:=T positionsangstrom=T Step:=T 0=T Bead:=T pbc="F F F"
C      -48.76830000     -33.70090000     -69.61680000
C      -48.60050000     -32.90620000     -70.77990000
C      -48.41030000     -33.62380000     -71.98920000
C      -48.37250000     -35.09140000     -72.03550000
C      -48.47840000     -35.82630000     -70.83830000
C      -48.70270000     -35.11630000     -69.64130000
H      -49.03350000     -33.19970000     -68.63800000
H      -48.06900000     -33.06050000     -72.91210000
H      -48.39420000     -36.94260000     -70.77160000
H      -48.82680000     -35.70220000     -68.73630000
C      -47.90600000     -35.78160000     -73.30350000
H      -48.03030000     -35.09370000     -74.14100000
H      -48.65330000     -36.55330000     -73.56730000
C      -48.89120000     -31.40600000     -70.80250000
H      -49.81510000     -31.17430000     -71.37160000
H      -49.10450000     -30.88130000     -69.87120000
S      -46.29860000     -36.63470000     -73.11700000
S      -47.63120000     -30.34010000     -71.67870000
C      -45.17550000     -35.45320000     -72.14370000
H      -45.77380000     -35.05360000     -71.29070000
H      -44.54730000     -36.22770000     -71.65550000
C      -46.11290000     -30.53660000     -70.67250000
H      -46.27510000     -30.12760000     -69.65690000
H      -45.39090000     -29.77490000     -71.05150000
C      -45.52760000     -31.92330000     -70.77270000
H      -46.17340000     -32.60300000     -70.25390000
H      -45.63150000     -32.18430000     -71.82390000
C      -44.39670000     -34.40880000     -73.02870000
H      -45.06950000     -33.59750000     -73.36810000
H      -44.01610000     -34.92400000     -73.92290000
C      -43.18370000     -33.92970000     -72.25310000
C      -41.94490000     -34.53910000     -72.37850000
C      -43.08180000     -32.90560000     -71.24240000
H      -41.73930000     -35.29620000     -73.05300000
C      -41.75620000     -32.76910000     -70.67890000
C      -44.02120000     -32.06610000     -70.45500000
C      -43.48740000     -31.37060000     -69.42760000
S      -40.62000000     -33.88450000     -71.51520000
S      -41.72740000     -31.66360000     -69.33760000
H      -43.98420000     -30.80150000     -68.64180000
