40
Properties=species:S:1:pos:R:3 #=T CELL(abcABC):=T 1.889726e+02=T 90.00000=T Traj:=T positionsangstrom=T Step:=T 0=T Bead:=T pbc="F F F"
C      -44.55970000     -35.24010000     -69.59380000
C      -45.95550000     -35.30800000     -69.53750000
C      -46.64420000     -35.83860000     -70.68580000
C      -45.86780000     -35.97610000     -71.84800000
C      -44.51080000     -35.69640000     -71.88730000
C      -43.81430000     -35.55330000     -70.70220000
H      -43.96440000     -34.92910000     -68.74710000
H      -47.74670000     -35.98400000     -70.66530000
H      -44.06230000     -35.74760000     -72.89660000
H      -42.72660000     -35.37740000     -70.79160000
C      -46.55220000     -36.24790000     -73.13070000
H      -47.50910000     -36.81880000     -73.06010000
H      -45.90010000     -36.86990000     -73.73120000
C      -46.67680000     -34.86300000     -68.16680000
H      -47.70640000     -35.19480000     -68.06390000
H      -46.20080000     -35.31950000     -67.31270000
S      -46.91710000     -34.71980000     -74.12770000
S      -46.73630000     -32.99750000     -67.84150000
C      -47.49070000     -33.43120000     -73.00510000
H      -48.64870000     -33.38280000     -73.04610000
H      -47.21040000     -33.48350000     -71.92880000
C      -47.35650000     -32.36920000     -69.42650000
H      -48.42280000     -32.11420000     -69.30760000
H      -47.37380000     -33.26150000     -70.12670000
C      -46.60170000     -31.20860000     -70.02550000
H      -47.18700000     -30.87280000     -70.87150000
H      -46.68900000     -30.40000000     -69.36890000
C      -46.87760000     -32.06020000     -73.35500000
H      -47.51310000     -31.34950000     -72.81570000
H      -46.95710000     -31.66190000     -74.36010000
C      -45.40080000     -31.93100000     -73.02580000
C      -44.55580000     -32.23700000     -74.04760000
C      -44.70700000     -31.78850000     -71.71740000
H      -44.95070000     -32.38100000     -75.07860000
C      -43.31500000     -32.02000000     -71.85130000
C      -45.09610000     -31.46680000     -70.36780000
C      -43.99890000     -31.49510000     -69.47150000
S      -42.85600000     -32.26770000     -73.55870000
S      -42.44800000     -31.91950000     -70.33050000
H      -43.95670000     -31.32490000     -68.43410000
