40
Properties=species:S:1:pos:R:3 #=T CELL(abcABC):=T 1.889726e+02=T 90.00000=T Traj:=T positionsangstrom=T Step:=T 0=T Bead:=T pbc="F F F"
C      -47.76660000     -34.28780000     -74.47680000
C      -47.46490000     -33.07500000     -73.80750000
C      -46.23030000     -32.40900000     -74.05610000
C      -45.19370000     -32.93350000     -74.90030000
C      -45.51900000     -34.19440000     -75.55960000
C      -46.75040000     -34.81030000     -75.30580000
H      -48.75510000     -34.80130000     -74.31110000
H      -46.04320000     -31.42730000     -73.61800000
H      -44.78480000     -34.72200000     -76.13890000
H      -46.80420000     -35.71800000     -75.85890000
C      -43.84260000     -32.27940000     -75.07130000
H      -43.65220000     -31.82550000     -76.05080000
H      -43.10010000     -33.07120000     -74.76290000
C      -48.44040000     -32.46820000     -72.82440000
H      -47.85770000     -31.68710000     -72.38520000
H      -49.25940000     -31.87500000     -73.39660000
S      -43.56190000     -30.86390000     -73.82390000
S      -49.07160000     -33.55100000     -71.56390000
C      -42.94270000     -31.61880000     -72.24250000
H      -42.17140000     -32.32220000     -72.55480000
H      -42.53790000     -30.81480000     -71.65780000
C      -47.84780000     -33.58140000     -70.22570000
H      -48.48950000     -33.89240000     -69.37000000
H      -47.51320000     -32.55670000     -69.99300000
C      -46.65440000     -34.53330000     -70.53650000
H      -47.16860000     -35.53110000     -70.63990000
H      -46.22970000     -34.21650000     -71.51070000
C      -44.04200000     -32.35220000     -71.43730000
H      -44.23080000     -33.14490000     -72.11380000
H      -44.81710000     -31.73710000     -71.42160000
C      -43.67800000     -32.95560000     -70.04170000
C      -42.50450000     -32.63610000     -69.36390000
C      -44.54990000     -33.77510000     -69.21130000
H      -41.69630000     -32.09010000     -69.83020000
C      -43.85580000     -34.18590000     -68.02070000
C      -45.70410000     -34.55020000     -69.36510000
C      -45.97240000     -35.45750000     -68.35670000
S      -42.31780000     -33.45870000     -67.85620000
S      -44.79430000     -35.29210000     -67.02520000
H      -46.71650000     -36.21480000     -68.39730000
