40
Properties=species:S:1:pos:R:3 #=T CELL(abcABC):=T 1.889726e+02=T 90.00000=T Traj:=T positionsangstrom=T Step:=T 0=T Bead:=T pbc="F F F"
C      -47.69280000     -34.28810000     -74.61330000
C      -47.45780000     -33.07230000     -73.89880000
C      -46.21300000     -32.37460000     -74.01150000
C      -45.19930000     -32.78010000     -74.89920000
C      -45.43280000     -34.02240000     -75.58860000
C      -46.61190000     -34.73770000     -75.31690000
H      -48.64230000     -34.84490000     -74.37890000
H      -45.96850000     -31.48220000     -73.38230000
H      -44.80570000     -34.52130000     -76.28420000
H      -46.52260000     -35.70000000     -75.80070000
C      -43.80130000     -32.20510000     -74.97400000
H      -43.65260000     -31.71000000     -75.96340000
H      -43.14170000     -33.01800000     -75.04160000
C      -48.59790000     -32.46720000     -73.04690000
H      -48.40710000     -31.54750000     -72.51880000
H      -49.46700000     -32.20290000     -73.69800000
S      -43.42110000     -31.02730000     -73.62580000
S      -49.28280000     -33.72280000     -71.78110000
C      -42.91520000     -31.93920000     -72.13450000
H      -42.32710000     -32.84900000     -72.47860000
H      -42.19520000     -31.39840000     -71.47640000
C      -48.04760000     -33.50870000     -70.38260000
H      -48.59070000     -33.87490000     -69.54220000
H      -47.90320000     -32.42270000     -70.34450000
C      -46.74730000     -34.31320000     -70.53860000
H      -46.92470000     -35.36240000     -70.73540000
H      -46.31970000     -34.02650000     -71.43220000
C      -44.06550000     -32.26090000     -71.24160000
H      -44.84030000     -32.87040000     -71.66640000
H      -44.66470000     -31.33020000     -70.92550000
C      -43.59530000     -32.93100000     -69.97280000
C      -42.41710000     -32.63630000     -69.38940000
C      -44.45860000     -33.84560000     -69.19190000
H      -41.67600000     -31.92360000     -69.67940000
C      -43.75950000     -34.31280000     -68.03710000
C      -45.80570000     -34.30390000     -69.30320000
C      -46.07950000     -35.14300000     -68.23250000
S      -42.21860000     -33.44030000     -67.78850000
S      -44.80790000     -35.36280000     -67.10110000
H      -46.99750000     -35.69710000     -68.15300000
