40
Properties=species:S:1:pos:R:3 #=T CELL(abcABC):=T 1.889726e+02=T 90.00000=T Traj:=T positionsangstrom=T Step:=T 0=T Bead:=T pbc="F F F"
C      -47.97280000     -35.62980000     -71.10250000
C      -47.71930000     -35.49230000     -72.42740000
C      -48.04530000     -34.32050000     -73.12980000
C      -48.47110000     -33.20700000     -72.44500000
C      -48.71670000     -33.33650000     -71.02960000
C      -48.51670000     -34.54980000     -70.37570000
H      -47.67590000     -36.54950000     -70.59310000
H      -47.89210000     -34.23660000     -74.17460000
H      -49.05870000     -32.51160000     -70.53700000
H      -48.69440000     -34.56850000     -69.34850000
C      -48.71320000     -31.97820000     -73.19610000
H      -49.47230000     -31.38320000     -72.71700000
H      -49.11050000     -32.14390000     -74.23960000
C      -47.14200000     -36.76210000     -73.10780000
H      -47.50000000     -37.72320000     -72.63120000
H      -47.64220000     -36.82430000     -74.06520000
S      -47.15430000     -31.01180000     -73.58700000
S      -45.25290000     -36.48170000     -73.32540000
C      -46.31280000     -30.84860000     -71.97430000
H      -46.14100000     -29.75740000     -71.88450000
H      -46.98900000     -31.20910000     -71.20760000
C      -44.81050000     -35.49840000     -71.82440000
H      -44.76830000     -36.25580000     -71.05700000
H      -45.50140000     -34.68210000     -71.60480000
C      -43.44790000     -34.81020000     -72.06730000
H      -42.56600000     -35.51090000     -72.35530000
H      -43.54050000     -34.19590000     -72.95350000
C      -45.04730000     -31.59250000     -71.99970000
H      -44.28290000     -31.14110000     -72.71210000
H      -45.19690000     -32.57840000     -72.39010000
C      -44.37410000     -31.66780000     -70.64700000
C      -44.37260000     -30.68120000     -69.71180000
C      -43.45400000     -32.77410000     -70.32310000
H      -44.96950000     -29.71910000     -69.73820000
C      -42.80600000     -32.44720000     -69.14370000
C      -43.04380000     -34.11010000     -70.81370000
C      -41.90620000     -34.54860000     -70.18080000
S      -43.26550000     -30.96730000     -68.36070000
S      -41.52490000     -33.62050000     -68.77800000
H      -41.42860000     -35.52670000     -70.35240000
