40
Properties=species:S:1:pos:R:3 #=T CELL(abcABC):=T 1.889726e+02=T 90.00000=T Traj:=T positionsangstrom=T Step:=T 0=T Bead:=T pbc="F F F"
C      -48.20430000     -35.67540000     -70.93620000
C      -47.89390000     -35.57360000     -72.29610000
C      -48.13940000     -34.31420000     -72.90120000
C      -48.48400000     -33.18870000     -72.10960000
C      -48.83740000     -33.35170000     -70.77660000
C      -48.69450000     -34.59030000     -70.19960000
H      -48.11080000     -36.62220000     -70.43330000
H      -47.64970000     -34.24730000     -73.86840000
H      -49.22300000     -32.52630000     -70.24920000
H      -49.04990000     -34.81870000     -69.26200000
C      -48.74440000     -31.84360000     -72.71940000
H      -49.04740000     -31.19820000     -71.84310000
H      -49.55380000     -31.93190000     -73.48190000
C      -47.13550000     -36.50500000     -73.16470000
H      -47.05130000     -37.50190000     -72.70110000
H      -47.70460000     -36.60190000     -74.09740000
S      -47.32920000     -31.18030000     -73.63320000
S      -45.40430000     -35.89090000     -73.49500000
C      -46.15280000     -30.90980000     -72.22530000
H      -45.53890000     -30.06950000     -72.43590000
H      -46.75160000     -30.66060000     -71.31030000
C      -44.72110000     -35.65200000     -71.80000000
H      -44.70150000     -36.70350000     -71.42580000
H      -45.28990000     -35.09350000     -71.06160000
C      -43.24780000     -35.04770000     -71.99570000
H      -42.53730000     -35.92520000     -71.97320000
H      -43.26120000     -34.54840000     -73.04910000
C      -45.22460000     -32.12730000     -72.03260000
H      -44.70290000     -32.22420000     -72.96630000
H      -45.70650000     -33.08840000     -71.73940000
C      -44.29080000     -31.99050000     -70.81730000
C      -44.23620000     -30.81810000     -70.05360000
C      -43.35680000     -32.92940000     -70.41170000
H      -44.70530000     -29.87530000     -70.37890000
C      -42.66540000     -32.44910000     -69.31380000
C      -42.80510000     -34.18560000     -70.87150000
C      -41.78250000     -34.64090000     -69.97150000
S      -43.16660000     -30.84260000     -68.69530000
S      -41.40710000     -33.50440000     -68.63960000
H      -41.40830000     -35.64760000     -69.93570000
