40
Properties=species:S:1:pos:R:3 #=T CELL(abcABC):=T 1.889726e+02=T 90.00000=T Traj:=T positionsangstrom=T Step:=T 0=T Bead:=T pbc="F F F"
C      -41.87340000     -33.57110000     -72.59670000
C      -43.08370000     -33.99940000     -71.97120000
C      -43.52040000     -33.25200000     -70.82390000
C      -42.85770000     -32.07700000     -70.38550000
C      -41.68160000     -31.68260000     -71.02620000
C      -41.15430000     -32.50810000     -72.10340000
H      -41.52160000     -34.05010000     -73.50710000
H      -44.36370000     -33.64200000     -70.23930000
H      -41.09940000     -30.90930000     -70.66770000
H      -40.19250000     -32.27070000     -72.50850000
C      -43.41810000     -31.16640000     -69.32470000
H      -42.65390000     -30.58500000     -68.85460000
H      -44.06480000     -31.69590000     -68.62420000
C      -43.87540000     -35.18950000     -72.56100000
H      -43.27350000     -36.07310000     -72.64800000
H      -44.69440000     -35.42640000     -71.94920000
S      -44.62960000     -30.01690000     -70.14450000
S      -44.32370000     -34.86570000     -74.32670000
C      -45.49060000     -30.73490000     -71.60280000
H      -45.42040000     -29.81720000     -72.18380000
H      -44.88500000     -31.58120000     -72.06710000
C      -45.67590000     -33.61860000     -74.09690000
H      -45.76240000     -33.11850000     -74.97380000
H      -45.21470000     -32.92640000     -73.31710000
C      -47.09390000     -34.07380000     -73.72130000
H      -47.65640000     -33.15100000     -73.95460000
H      -47.31840000     -34.86810000     -74.39110000
C      -46.96940000     -31.28190000     -71.53400000
H      -47.37700000     -31.49030000     -72.53990000
H      -47.62300000     -30.50790000     -71.09270000
C      -47.04460000     -32.50740000     -70.65160000
C      -47.21440000     -32.39710000     -69.27000000
C      -47.10320000     -33.87980000     -71.05540000
H      -47.05780000     -31.50470000     -68.70590000
C      -47.23130000     -34.73260000     -69.99770000
C      -47.16320000     -34.61130000     -72.30470000
C      -47.34280000     -35.97100000     -72.12150000
S      -47.13080000     -33.93020000     -68.47970000
S      -47.54000000     -36.39960000     -70.46360000
H      -47.48320000     -36.70880000     -72.94130000
