40
Properties=species:S:1:pos:R:3 #=T CELL(abcABC):=T 1.889726e+02=T 90.00000=T Traj:=T positionsangstrom=T Step:=T 0=T Bead:=T pbc="F F F"
C      -41.60580000     -33.27590000     -70.44110000
C      -42.40370000     -32.20050000     -70.04540000
C      -42.97520000     -31.43160000     -71.05340000
C      -42.63980000     -31.62370000     -72.43050000
C      -41.67630000     -32.56970000     -72.77660000
C      -41.19410000     -33.40860000     -71.76860000
H      -41.16420000     -33.84370000     -69.62390000
H      -43.73970000     -30.64360000     -70.88160000
H      -41.23690000     -32.71060000     -73.75540000
H      -40.48240000     -34.26190000     -71.98590000
C      -43.45710000     -30.87480000     -73.44300000
H      -43.07010000     -30.71750000     -74.46740000
H      -43.70060000     -29.85960000     -73.01200000
C      -42.80550000     -31.97660000     -68.61900000
H      -41.95740000     -31.59220000     -68.15930000
H      -43.60600000     -31.15830000     -68.50420000
S      -45.15220000     -31.61110000     -73.47100000
S      -43.28210000     -33.51130000     -67.77940000
C      -44.82330000     -33.38850000     -74.12430000
H      -45.42990000     -33.66240000     -74.95990000
H      -43.76120000     -33.27300000     -74.46270000
C      -45.02810000     -33.74100000     -68.16230000
H      -45.57180000     -32.85990000     -67.69630000
H      -45.27780000     -34.65850000     -67.74490000
C      -45.28740000     -33.64040000     -69.77900000
H      -45.03850000     -32.60870000     -70.14660000
H      -44.60840000     -34.28990000     -70.25250000
C      -44.98270000     -34.55510000     -73.07800000
H      -44.47480000     -34.25540000     -72.19860000
H      -44.48440000     -35.43190000     -73.51040000
C      -46.46030000     -34.69570000     -72.77870000
C      -47.33870000     -35.16330000     -73.70000000
C      -47.07410000     -34.45910000     -71.50330000
H      -47.13380000     -35.24270000     -74.76610000
C      -48.43850000     -34.54900000     -71.60640000
C      -46.68800000     -33.87380000     -70.19120000
C      -47.81570000     -33.64230000     -69.40230000
S      -48.97730000     -35.22160000     -73.12940000
S      -49.34760000     -34.06150000     -70.21030000
H      -47.78020000     -33.29410000     -68.39020000
