40
Properties=species:S:1:pos:R:3 #=T CELL(abcABC):=T 1.889726e+02=T 90.00000=T Traj:=T positionsangstrom=T Step:=T 0=T Bead:=T pbc="F F F"
C      -48.65530000     -34.62500000     -70.49040000
C      -48.00690000     -35.05120000     -71.68030000
C      -47.97770000     -34.15840000     -72.73340000
C      -48.50060000     -32.87560000     -72.66520000
C      -49.36720000     -32.62070000     -71.52920000
C      -49.38540000     -33.44980000     -70.46040000
H      -48.68250000     -35.18410000     -69.58980000
H      -47.46270000     -34.41760000     -73.64680000
H      -49.79870000     -31.68640000     -71.57980000
H      -49.92820000     -33.18880000     -69.50560000
C      -48.48300000     -31.84230000     -73.67250000
H      -49.28180000     -31.16590000     -73.48470000
H      -48.68640000     -32.33110000     -74.62520000
C      -47.54210000     -36.45440000     -71.79780000
H      -47.50880000     -36.87860000     -70.80670000
H      -48.27140000     -37.01980000     -72.37330000
S      -46.89820000     -31.00660000     -73.89070000
S      -45.89650000     -36.62640000     -72.71920000
C      -45.98920000     -31.01560000     -72.40030000
H      -45.39410000     -30.07560000     -72.34140000
H      -46.60480000     -30.84860000     -71.53410000
C      -44.74350000     -35.94530000     -71.42490000
H      -44.41650000     -36.81480000     -70.82870000
H      -45.26120000     -35.33740000     -70.64200000
C      -43.63970000     -35.14140000     -71.99420000
H      -43.01530000     -35.82130000     -72.51550000
H      -43.97260000     -34.41490000     -72.75900000
C      -45.02370000     -32.15200000     -72.13580000
H      -44.32140000     -32.19370000     -72.95430000
H      -45.75430000     -33.06760000     -72.13600000
C      -44.13740000     -32.06690000     -70.85320000
C      -44.17470000     -31.05480000     -70.00260000
C      -43.24690000     -33.06950000     -70.43050000
H      -44.75580000     -30.11800000     -70.04620000
C      -42.42800000     -32.65390000     -69.34740000
C      -42.81270000     -34.39370000     -70.93850000
C      -41.67520000     -34.78930000     -70.24590000
S      -42.94330000     -31.11420000     -68.75130000
S      -41.05240000     -33.67460000     -69.03900000
H      -41.33770000     -35.78950000     -70.39210000
