40
Properties=species:S:1:pos:R:3 #=T CELL(abcABC):=T 1.889726e+02=T 90.00000=T Traj:=T positionsangstrom=T Step:=T 0=T Bead:=T pbc="F F F"
C      -40.93010000     -32.15670000     -70.56920000
C      -42.20510000     -31.76610000     -70.18210000
C      -43.17220000     -31.60810000     -71.22400000
C      -42.91630000     -31.79820000     -72.54950000
C      -41.58770000     -32.12970000     -72.90310000
C      -40.60550000     -32.34030000     -71.91650000
H      -40.21230000     -32.32470000     -69.76100000
H      -44.13620000     -31.27890000     -70.84810000
H      -41.19680000     -32.18130000     -73.93750000
H      -39.56850000     -32.54340000     -72.16460000
C      -43.82480000     -31.47770000     -73.64380000
H      -43.42790000     -31.51540000     -74.67370000
H      -44.27230000     -30.50950000     -73.47420000
C      -42.55500000     -31.52480000     -68.74320000
H      -41.60490000     -31.37430000     -68.18070000
H      -43.03350000     -30.50380000     -68.66980000
S      -45.25650000     -32.68430000     -73.85840000
S      -43.40690000     -32.76180000     -67.73240000
C      -44.37330000     -34.33640000     -73.69490000
H      -44.34830000     -34.84100000     -74.65520000
H      -43.32060000     -34.01510000     -73.44160000
C      -45.19620000     -32.82260000     -68.42630000
H      -45.39230000     -31.84450000     -68.80250000
H      -45.93690000     -32.97690000     -67.62860000
C      -45.37000000     -33.91220000     -69.50210000
H      -44.74980000     -33.69790000     -70.33430000
H      -45.05400000     -34.92310000     -69.25610000
C      -44.93540000     -35.29660000     -72.65490000
H      -44.46460000     -34.98100000     -71.73710000
H      -44.61070000     -36.27920000     -72.98770000
C      -46.44090000     -35.16790000     -72.50300000
C      -47.33630000     -35.62660000     -73.45580000
C      -47.16880000     -34.66940000     -71.34600000
H      -47.08710000     -36.13770000     -74.36800000
C      -48.56510000     -34.57160000     -71.55320000
C      -46.84670000     -33.96630000     -70.09520000
C      -47.89750000     -33.37860000     -69.39870000
S      -49.02890000     -35.46040000     -72.96040000
S      -49.42450000     -33.67840000     -70.27830000
H      -47.86950000     -32.92420000     -68.43790000
