40
Properties=species:S:1:pos:R:3 #=T CELL(abcABC):=T 1.889726e+02=T 90.00000=T Traj:=T positionsangstrom=T Step:=T 0=T Bead:=T pbc="F F F"
C      -41.16970000     -32.04380000     -70.46060000
C      -42.35120000     -31.31660000     -70.41690000
C      -43.15930000     -31.27250000     -71.53780000
C      -42.73620000     -31.80470000     -72.77160000
C      -41.48320000     -32.51290000     -72.80220000
C      -40.66110000     -32.50360000     -71.69630000
H      -40.56930000     -32.18730000     -69.51670000
H      -44.18150000     -30.92680000     -71.40730000
H      -41.19970000     -32.95740000     -73.71970000
H      -39.73790000     -32.99190000     -71.71200000
C      -43.67780000     -31.89530000     -73.90660000
H      -43.24940000     -32.44670000     -74.72200000
H      -44.01190000     -30.88940000     -74.22030000
C      -42.90290000     -30.95450000     -69.05850000
H      -42.12530000     -30.39360000     -68.52010000
H      -43.65900000     -30.15950000     -69.06440000
S      -45.16560000     -32.95510000     -73.30340000
S      -43.28750000     -32.47760000     -68.02460000
C      -44.29860000     -34.56650000     -73.30550000
H      -44.29410000     -34.97500000     -74.32610000
H      -43.20140000     -34.46040000     -73.07850000
C      -45.18440000     -32.94670000     -68.44110000
H      -45.74270000     -31.99530000     -68.34780000
H      -45.45310000     -33.66060000     -67.67310000
C      -45.30260000     -33.41760000     -69.84270000
H      -44.92450000     -32.72450000     -70.64270000
H      -44.66010000     -34.33720000     -70.04500000
C      -45.09140000     -35.60380000     -72.47080000
H      -44.67460000     -35.73650000     -71.41660000
H      -44.81040000     -36.54400000     -72.91440000
C      -46.52280000     -35.41280000     -72.45280000
C      -47.40500000     -36.08900000     -73.24030000
C      -47.13870000     -34.52880000     -71.45700000
H      -47.16920000     -36.85240000     -73.99740000
C      -48.51290000     -34.57190000     -71.51920000
C      -46.74630000     -33.82000000     -70.17700000
C      -47.82780000     -33.27330000     -69.54660000
S      -49.09070000     -35.48970000     -72.87660000
S      -49.44480000     -33.60460000     -70.32630000
H      -47.78340000     -32.63850000     -68.69320000
