40
Properties=species:S:1:pos:R:3 #=T CELL(abcABC):=T 1.889726e+02=T 90.00000=T Traj:=T positionsangstrom=T Step:=T 0=T Bead:=T pbc="F F F"
C      -41.42380000     -33.25580000     -70.43740000
C      -42.40900000     -32.32900000     -69.97090000
C      -42.97060000     -31.53050000     -70.97930000
C      -42.67350000     -31.69520000     -72.34130000
C      -41.78560000     -32.70970000     -72.76740000
C      -41.13090000     -33.42740000     -71.79920000
H      -41.05180000     -33.94110000     -69.71820000
H      -43.61280000     -30.69370000     -70.57350000
H      -41.68880000     -32.93540000     -73.84630000
H      -40.43470000     -34.16170000     -72.18620000
C      -43.38920000     -30.79750000     -73.37590000
H      -43.00180000     -30.94120000     -74.33160000
H      -43.35640000     -29.73850000     -73.17210000
C      -42.69680000     -32.15630000     -68.50460000
H      -41.74970000     -32.03110000     -68.06920000
H      -43.40370000     -31.35250000     -68.26410000
S      -45.14160000     -31.36160000     -73.60860000
S      -43.30560000     -33.76830000     -67.69640000
C      -44.90700000     -33.07840000     -74.18820000
H      -45.69270000     -33.31870000     -75.03610000
H      -43.93480000     -33.08470000     -74.70950000
C      -45.05390000     -33.63340000     -68.36180000
H      -45.47840000     -32.64150000     -68.01470000
H      -45.66450000     -34.32700000     -67.78770000
C      -45.18570000     -34.03840000     -69.88670000
H      -44.61700000     -33.35310000     -70.56790000
H      -44.71250000     -35.01620000     -70.06360000
C      -45.06140000     -34.23750000     -73.17520000
H      -44.51150000     -34.28550000     -72.26860000
H      -44.71220000     -35.15720000     -73.73370000
C      -46.51260000     -34.56780000     -72.79290000
C      -47.32790000     -34.98130000     -73.74990000
C      -47.17160000     -34.31660000     -71.52130000
H      -47.05630000     -34.99770000     -74.80060000
C      -48.52910000     -34.47390000     -71.59080000
C      -46.64050000     -34.01550000     -70.19530000
C      -47.70010000     -33.84160000     -69.35580000
S      -49.02580000     -35.08370000     -73.17550000
S      -49.34050000     -34.14880000     -70.04660000
H      -47.60670000     -33.56660000     -68.29940000
