40
Properties=species:S:1:pos:R:3 #=T CELL(abcABC):=T 1.889726e+02=T 90.00000=T Traj:=T positionsangstrom=T Step:=T 0=T Bead:=T pbc="F F F"
C      -41.28020000     -33.40960000     -70.47380000
C      -42.07530000     -32.43190000     -69.88970000
C      -42.87330000     -31.61860000     -70.76680000
C      -42.73100000     -31.67860000     -72.15800000
C      -41.87340000     -32.66630000     -72.68220000
C      -41.13930000     -33.50880000     -71.86730000
H      -40.53350000     -33.90080000     -69.88530000
H      -43.58390000     -30.92330000     -70.36340000
H      -41.65820000     -32.72840000     -73.72870000
H      -40.38950000     -34.12680000     -72.27250000
C      -43.49080000     -30.79390000     -73.14970000
H      -42.82980000     -30.58570000     -74.05310000
H      -43.62930000     -29.83190000     -72.64710000
C      -42.27050000     -32.31830000     -68.40100000
H      -41.32910000     -32.17960000     -67.73350000
H      -42.86350000     -31.45190000     -68.14640000
S      -45.15160000     -31.32290000     -73.73660000
S      -43.21230000     -33.76230000     -67.81720000
C      -44.93910000     -32.96120000     -74.42810000
H      -45.59110000     -33.13810000     -75.29130000
H      -43.95220000     -33.04220000     -74.72520000
C      -44.95060000     -33.46090000     -68.23540000
H      -45.26590000     -32.48860000     -68.32620000
H      -45.60480000     -33.99010000     -67.43930000
C      -45.22860000     -34.14700000     -69.63480000
H      -44.73410000     -33.54020000     -70.33870000
H      -44.81620000     -35.15040000     -69.77010000
C      -45.18930000     -34.08630000     -73.33400000
H      -44.56060000     -33.82620000     -72.45980000
H      -44.73450000     -34.88370000     -73.85730000
C      -46.63660000     -34.38580000     -72.92610000
C      -47.58110000     -34.63760000     -73.84440000
C      -47.15400000     -34.38920000     -71.53490000
H      -47.35130000     -34.92060000     -74.88190000
C      -48.55880000     -34.53180000     -71.58290000
C      -46.67570000     -34.15100000     -70.16800000
C      -47.77390000     -34.26200000     -69.34060000
S      -49.18580000     -34.72560000     -73.18100000
S      -49.35270000     -34.44280000     -70.04810000
H      -47.78760000     -34.09150000     -68.25260000
