40
Properties=species:S:1:pos:R:3 #=T CELL(abcABC):=T 1.889726e+02=T 90.00000=T Traj:=T positionsangstrom=T Step:=T 0=T Bead:=T pbc="F F F"
C      -41.18480000     -32.97530000     -70.43410000
C      -42.21680000     -32.07940000     -70.04270000
C      -43.09640000     -31.46600000     -70.94230000
C      -42.94040000     -31.62410000     -72.29700000
C      -41.84140000     -32.42910000     -72.76100000
C      -40.95140000     -33.10740000     -71.77540000
H      -40.53970000     -33.35980000     -69.63480000
H      -43.90900000     -30.80940000     -70.64990000
H      -41.50890000     -32.47080000     -73.78020000
H      -40.04030000     -33.57430000     -72.05750000
C      -43.81030000     -31.01290000     -73.29940000
H      -43.22090000     -30.95870000     -74.22280000
H      -44.17750000     -30.05820000     -72.95850000
C      -42.52880000     -31.76550000     -68.60680000
H      -41.64040000     -31.74330000     -68.00190000
H      -43.24100000     -31.05980000     -68.47550000
S      -45.32390000     -32.10560000     -73.71520000
S      -43.29150000     -33.33050000     -67.81660000
C      -44.56730000     -33.76810000     -73.96890000
H      -45.03530000     -34.16370000     -74.93810000
H      -43.47310000     -33.72750000     -73.94960000
C      -45.07730000     -33.14420000     -68.31150000
H      -45.20310000     -32.10990000     -68.03500000
H      -45.68290000     -33.69590000     -67.50040000
C      -45.40180000     -33.34100000     -69.82810000
H      -45.16440000     -32.44320000     -70.36440000
H      -44.76670000     -34.15900000     -70.26810000
C      -44.91030000     -34.79530000     -72.90340000
H      -44.13250000     -34.59280000     -72.13370000
H      -44.52030000     -35.68290000     -73.40100000
C      -46.39160000     -34.94300000     -72.62640000
C      -47.24160000     -35.40700000     -73.59680000
C      -47.05410000     -34.43460000     -71.46690000
H      -46.95500000     -36.05210000     -74.40290000
C      -48.47420000     -34.62230000     -71.55890000
C      -46.77210000     -33.82350000     -70.21080000
C      -47.89940000     -33.54580000     -69.44050000
S      -48.93390000     -35.29750000     -73.17020000
S      -49.38040000     -33.98850000     -70.23940000
H      -47.87080000     -32.98740000     -68.49400000
