40
Properties=species:S:1:pos:R:3 #=T CELL(abcABC):=T 1.889726e+02=T 90.00000=T Traj:=T positionsangstrom=T Step:=T 0=T Bead:=T pbc="F F F"
C      -42.44900000     -33.63220000     -74.20540000
C      -42.19910000     -33.85230000     -72.77120000
C      -42.18140000     -32.75200000     -71.96850000
C      -42.51710000     -31.48930000     -72.49900000
C      -42.72130000     -31.21960000     -73.81710000
C      -42.67480000     -32.34790000     -74.71400000
H      -42.38980000     -34.54790000     -74.71000000
H      -41.92430000     -32.91400000     -70.85980000
H      -43.03000000     -30.18020000     -74.13110000
H      -42.63480000     -32.22430000     -75.79750000
C      -42.68650000     -30.35430000     -71.52820000
H      -43.32100000     -29.59610000     -71.87750000
H      -41.70890000     -29.91400000     -71.30470000
C      -41.72060000     -35.24460000     -72.34240000
H      -41.78750000     -35.90250000     -73.14580000
H      -40.66800000     -35.12070000     -72.08950000
S      -43.56780000     -30.80430000     -69.91420000
S      -42.57750000     -36.04830000     -70.83430000
C      -45.30340000     -31.05530000     -70.44760000
H      -45.86430000     -30.07960000     -70.61730000
H      -45.33520000     -31.55860000     -71.48690000
C      -44.45650000     -36.06950000     -71.17850000
H      -44.85360000     -36.82560000     -70.45640000
H      -44.56790000     -36.50160000     -72.14470000
C      -45.20270000     -34.76820000     -71.04520000
H      -45.02470000     -34.28920000     -70.07040000
H      -44.95720000     -34.04940000     -71.84000000
C      -45.96120000     -31.95440000     -69.39400000
H      -46.06760000     -31.39000000     -68.48470000
H      -45.34530000     -32.82010000     -69.16450000
C      -47.33500000     -32.55100000     -69.79260000
C      -48.49270000     -31.83460000     -69.63810000
C      -47.52530000     -33.82780000     -70.47850000
H      -48.67580000     -30.99820000     -69.07220000
C      -48.85870000     -33.95810000     -70.74820000
C      -46.76780000     -34.87550000     -71.10700000
C      -47.47590000     -35.73250000     -71.88350000
S      -49.88460000     -32.73420000     -70.20540000
S      -49.20510000     -35.36300000     -71.72820000
H      -47.16030000     -36.61230000     -72.48830000
