40
Properties=species:S:1:pos:R:3 #=T CELL(abcABC):=T 1.889726e+02=T 90.00000=T Traj:=T positionsangstrom=T Step:=T 0=T Bead:=T pbc="F F F"
C      -42.24500000     -33.86120000     -74.11350000
C      -42.07700000     -33.94430000     -72.71300000
C      -42.16690000     -32.83240000     -71.83820000
C      -42.54870000     -31.60030000     -72.35780000
C      -42.93050000     -31.47480000     -73.73840000
C      -42.74710000     -32.60560000     -74.61670000
H      -42.24180000     -34.74610000     -74.84590000
H      -42.00070000     -32.99600000     -70.80870000
H      -43.32380000     -30.49660000     -73.95970000
H      -43.06370000     -32.64870000     -75.66990000
C      -42.52290000     -30.36710000     -71.54260000
H      -42.81630000     -29.54570000     -72.19610000
H      -41.55930000     -30.15370000     -71.16920000
C      -41.65130000     -35.23380000     -72.13230000
H      -41.46550000     -35.97450000     -72.88500000
H      -40.81040000     -35.22770000     -71.50770000
S      -43.67140000     -30.40760000     -70.00950000
S      -42.81440000     -36.03760000     -70.98030000
C      -45.29470000     -31.08790000     -70.53850000
H      -45.95410000     -30.21520000     -70.87920000
H      -45.05440000     -31.67570000     -71.44410000
C      -44.43150000     -35.75070000     -71.75320000
H      -45.02130000     -36.67660000     -71.70040000
H      -44.31560000     -35.69980000     -72.81350000
C      -45.18120000     -34.55340000     -71.23500000
H      -44.94330000     -34.36510000     -70.16490000
H      -44.96550000     -33.59570000     -71.80970000
C      -45.91660000     -31.87270000     -69.37710000
H      -46.17630000     -31.18510000     -68.56100000
H      -45.21410000     -32.63240000     -68.92890000
C      -47.28170000     -32.57620000     -69.85820000
C      -48.47240000     -31.97920000     -69.43690000
C      -47.52820000     -33.73580000     -70.61040000
H      -48.46240000     -31.02140000     -68.79610000
C      -48.88650000     -34.08250000     -70.64050000
C      -46.68640000     -34.72970000     -71.24880000
C      -47.36800000     -35.67040000     -72.00210000
S      -49.84270000     -32.83390000     -69.97810000
S      -49.15710000     -35.50740000     -71.61800000
H      -47.00810000     -36.63320000     -72.35070000
