40
Properties=species:S:1:pos:R:3 #=T CELL(abcABC):=T 1.889726e+02=T 90.00000=T Traj:=T positionsangstrom=T Step:=T 0=T Bead:=T pbc="F F F"
C      -42.29820000     -33.74810000     -74.14500000
C      -42.07960000     -33.89220000     -72.73840000
C      -42.25570000     -32.82060000     -71.84480000
C      -42.56410000     -31.56480000     -72.40950000
C      -42.81380000     -31.37130000     -73.81620000
C      -42.67690000     -32.45420000     -74.69350000
H      -42.04920000     -34.51920000     -74.78200000
H      -42.16920000     -33.01190000     -70.77030000
H      -43.01550000     -30.33890000     -74.13410000
H      -42.97640000     -32.58350000     -75.74310000
C      -42.71080000     -30.36410000     -71.52030000
H      -43.09830000     -29.49410000     -72.12530000
H      -41.64370000     -30.09250000     -71.21100000
C      -41.61450000     -35.25170000     -72.26990000
H      -41.55990000     -35.97840000     -73.15040000
H      -40.61190000     -35.21610000     -71.79490000
S      -43.55990000     -30.63600000     -69.96560000
S      -42.67340000     -35.88770000     -70.91320000
C      -45.18090000     -31.34150000     -70.66420000
H      -45.77060000     -30.65080000     -71.19780000
H      -44.87710000     -32.10830000     -71.35580000
C      -44.38050000     -36.00770000     -71.63900000
H      -44.84780000     -36.93510000     -71.37250000
H      -44.23980000     -35.84580000     -72.75530000
C      -45.18480000     -34.79880000     -71.06220000
H      -44.79780000     -34.65440000     -70.11230000
H      -44.81980000     -33.91840000     -71.66400000
C      -46.05110000     -31.92000000     -69.49110000
H      -46.19630000     -31.06400000     -68.82260000
H      -45.46060000     -32.56570000     -68.86470000
C      -47.39750000     -32.42310000     -69.81890000
C      -48.59260000     -31.86890000     -69.42800000
C      -47.51960000     -33.60680000     -70.71770000
H      -48.55160000     -31.04930000     -68.77140000
C      -48.91560000     -33.88870000     -70.79920000
C      -46.69690000     -34.77950000     -71.11050000
C      -47.44000000     -35.72180000     -71.77180000
S      -49.98840000     -32.81080000     -69.94330000
S      -49.12090000     -35.46530000     -71.68260000
H      -47.06560000     -36.63690000     -72.21280000
