40
Properties=species:S:1:pos:R:3 #=T CELL(abcABC):=T 1.889726e+02=T 90.00000=T Traj:=T positionsangstrom=T Step:=T 0=T Bead:=T pbc="F F F"
C      -42.71760000     -33.67340000     -74.20710000
C      -42.43470000     -34.02770000     -72.88210000
C      -42.46340000     -32.99600000     -71.94150000
C      -42.70190000     -31.65370000     -72.28280000
C      -43.02420000     -31.32530000     -73.60850000
C      -43.00020000     -32.31970000     -74.57260000
H      -42.55860000     -34.57650000     -74.92550000
H      -42.34440000     -33.19060000     -70.90720000
H      -43.10450000     -30.27590000     -73.85400000
H      -43.21590000     -32.14160000     -75.66080000
C      -42.58930000     -30.53780000     -71.23190000
H      -42.75420000     -29.60200000     -71.71690000
H      -41.56170000     -30.50100000     -70.94550000
C      -42.00510000     -35.42390000     -72.53190000
H      -42.35860000     -36.01810000     -73.32940000
H      -40.94530000     -35.43620000     -72.56710000
S      -43.44560000     -30.79910000     -69.64150000
S      -42.52820000     -35.93950000     -70.84430000
C      -45.10860000     -31.25230000     -70.30530000
H      -45.52870000     -30.27590000     -70.73330000
H      -44.95160000     -31.96730000     -71.17420000
C      -44.39330000     -36.06780000     -71.06810000
H      -44.77200000     -36.72530000     -70.31160000
H      -44.57440000     -36.43620000     -72.07820000
C      -45.06990000     -34.70030000     -70.89610000
H      -44.89820000     -34.37750000     -69.85030000
H      -44.55430000     -34.04360000     -71.56960000
C      -46.05700000     -31.89900000     -69.33670000
H      -46.12630000     -31.34510000     -68.39000000
H      -45.54870000     -32.80210000     -69.07270000
C      -47.35610000     -32.36850000     -69.90760000
C      -48.52470000     -31.79140000     -69.64430000
C      -47.47190000     -33.57160000     -70.70970000
H      -48.80720000     -30.88140000     -69.12750000
C      -48.83180000     -33.94310000     -70.98490000
C      -46.57380000     -34.67550000     -71.15100000
C      -47.27650000     -35.67200000     -71.85120000
S      -49.88450000     -32.59760000     -70.51410000
S      -48.96930000     -35.42350000     -71.88140000
H      -46.90960000     -36.44810000     -72.50050000
