40
Properties=species:S:1:pos:R:3 #=T CELL(abcABC):=T 1.889726e+02=T 90.00000=T Traj:=T positionsangstrom=T Step:=T 0=T Bead:=T pbc="F F F"
C      -43.31080000     -34.28530000     -73.60730000
C      -42.52620000     -34.24960000     -72.47310000
C      -42.18190000     -33.06420000     -71.89200000
C      -42.56320000     -31.85450000     -72.43880000
C      -43.36420000     -31.89430000     -73.62290000
C      -43.83880000     -33.11520000     -74.12540000
H      -43.58010000     -35.22740000     -74.10230000
H      -41.53420000     -33.12310000     -70.91820000
H      -43.90340000     -30.98120000     -73.83510000
H      -44.62160000     -33.22550000     -74.84640000
C      -42.31950000     -30.54050000     -71.69680000
H      -42.71760000     -29.63540000     -72.18570000
H      -41.31530000     -30.42890000     -71.29300000
C      -42.01560000     -35.54040000     -71.98530000
H      -42.15730000     -36.24750000     -72.81630000
H      -40.95410000     -35.51690000     -71.72540000
S      -43.34040000     -30.61750000     -70.15230000
S      -42.70070000     -36.21000000     -70.35420000
C      -45.00410000     -31.16380000     -70.65160000
H      -45.66790000     -30.31200000     -71.05740000
H      -44.90690000     -31.88700000     -71.50990000
C      -44.52620000     -36.21230000     -70.70780000
H      -45.08110000     -36.91030000     -70.07100000
H      -44.69590000     -36.35260000     -71.79130000
C      -45.22340000     -34.82640000     -70.43190000
H      -45.23380000     -34.67080000     -69.34750000
H      -44.45360000     -34.09020000     -70.74920000
C      -45.80940000     -31.78700000     -69.47060000
H      -45.96390000     -30.99470000     -68.77120000
H      -45.21900000     -32.57160000     -68.93310000
C      -47.13310000     -32.25290000     -69.96470000
C      -48.34430000     -31.51450000     -69.95860000
C      -47.41200000     -33.49250000     -70.59840000
H      -48.47340000     -30.59670000     -69.35660000
C      -48.68260000     -33.59910000     -71.23220000
C      -46.62570000     -34.64800000     -70.91960000
C      -47.26720000     -35.56690000     -71.74200000
S      -49.63050000     -32.17220000     -70.88280000
S      -48.89200000     -35.04930000     -72.19140000
H      -46.90340000     -36.52710000     -72.15280000
