40
Properties=species:S:1:pos:R:3 #=T CELL(abcABC):=T 1.889726e+02=T 90.00000=T Traj:=T positionsangstrom=T Step:=T 0=T Bead:=T pbc="F F F"
C      -43.29710000     -34.12250000     -73.79630000
C      -42.57160000     -34.23500000     -72.63690000
C      -42.30270000     -33.10970000     -71.88750000
C      -42.80050000     -31.88740000     -72.24650000
C      -43.63800000     -31.81850000     -73.34690000
C      -43.85710000     -32.90970000     -74.18010000
H      -43.41750000     -34.99460000     -74.45070000
H      -41.61450000     -33.16530000     -70.95980000
H      -44.14970000     -30.87110000     -73.66590000
H      -44.61600000     -32.78380000     -74.99570000
C      -42.40660000     -30.65240000     -71.47240000
H      -42.46310000     -29.81190000     -72.10640000
H      -41.34190000     -30.73110000     -71.21930000
C      -41.90220000     -35.54070000     -72.29330000
H      -42.00870000     -36.35440000     -73.04970000
H      -40.84630000     -35.33160000     -72.11810000
S      -43.32520000     -30.52660000     -69.82710000
S      -42.52790000     -36.14200000     -70.70030000
C      -45.03910000     -31.07510000     -70.38310000
H      -45.54930000     -30.19240000     -70.85240000
H      -44.83880000     -31.86180000     -71.14310000
C      -44.39510000     -36.09490000     -70.86970000
H      -44.93780000     -36.95050000     -70.50860000
H      -44.48620000     -36.12480000     -71.92850000
C      -45.09930000     -34.82780000     -70.30990000
H      -45.13540000     -35.05720000     -69.20220000
H      -44.34410000     -34.01200000     -70.37770000
C      -46.02240000     -31.60800000     -69.32390000
H      -46.13890000     -30.77350000     -68.62950000
H      -45.47840000     -32.32770000     -68.73640000
C      -47.19070000     -32.26700000     -70.00040000
C      -48.38870000     -31.54190000     -70.04360000
C      -47.39340000     -33.52190000     -70.70140000
H      -48.67720000     -30.56200000     -69.71950000
C      -48.65370000     -33.68800000     -71.23010000
C      -46.49930000     -34.73080000     -70.91790000
C      -47.17210000     -35.63610000     -71.75930000
S      -49.66500000     -32.33950000     -70.93410000
S      -48.87790000     -35.19170000     -72.15660000
H      -46.93040000     -36.64560000     -72.03370000
