40
Properties=species:S:1:pos:R:3 #=T CELL(abcABC):=T 1.889726e+02=T 90.00000=T Traj:=T positionsangstrom=T Step:=T 0=T Bead:=T pbc="F F F"
C      -42.91220000     -34.71250000     -73.59640000
C      -42.23150000     -34.55680000     -72.35690000
C      -41.96750000     -33.32600000     -71.77640000
C      -42.42940000     -32.16820000     -72.46220000
C      -43.04990000     -32.27450000     -73.68210000
C      -43.28100000     -33.54670000     -74.29290000
H      -43.12930000     -35.65990000     -74.02730000
H      -41.62100000     -33.29910000     -70.68590000
H      -43.52150000     -31.34650000     -74.10110000
H      -43.82080000     -33.68510000     -75.22910000
C      -42.32390000     -30.87870000     -71.72690000
H      -42.55210000     -29.99190000     -72.38020000
H      -41.23730000     -30.65290000     -71.49470000
C      -41.75350000     -35.75890000     -71.62220000
H      -41.52950000     -36.65100000     -72.19480000
H      -40.78110000     -35.55020000     -71.21150000
S      -43.32330000     -30.70490000     -70.20420000
S      -43.02140000     -36.29330000     -70.28140000
C      -45.04630000     -30.83900000     -70.84650000
H      -45.44950000     -29.84920000     -71.06610000
H      -45.04460000     -31.45930000     -71.75710000
C      -44.67600000     -35.93560000     -71.08860000
H      -45.34760000     -36.72770000     -70.76340000
H      -44.73720000     -36.03290000     -72.16300000
C      -45.24660000     -34.60040000     -70.63140000
H      -45.23980000     -34.35190000     -69.57230000
H      -44.70360000     -33.77770000     -71.06430000
C      -45.88540000     -31.40950000     -69.70360000
H      -45.87100000     -30.71610000     -68.86660000
H      -45.25990000     -32.18990000     -69.24940000
C      -47.23730000     -31.95250000     -70.23560000
C      -48.30090000     -31.12000000     -70.24450000
C      -47.46400000     -33.31670000     -70.69610000
H      -48.30300000     -30.07700000     -70.05430000
C      -48.76590000     -33.43910000     -71.10060000
C      -46.70300000     -34.49780000     -71.00820000
C      -47.41000000     -35.49720000     -71.62100000
S      -49.72480000     -32.00070000     -70.89910000
S      -49.11030000     -34.99040000     -71.69320000
H      -47.06880000     -36.52210000     -71.60390000
