40
Properties=species:S:1:pos:R:3 #=T CELL(abcABC):=T 1.889726e+02=T 90.00000=T Traj:=T positionsangstrom=T Step:=T 0=T Bead:=T pbc="F F F"
C      -42.36400000     -35.03860000     -73.75460000
C      -42.39680000     -34.89930000     -72.36860000
C      -42.41490000     -33.60380000     -71.74110000
C      -42.26010000     -32.45420000     -72.53360000
C      -42.18480000     -32.58720000     -73.92210000
C      -42.14880000     -33.84210000     -74.50130000
H      -42.27460000     -35.99610000     -74.23180000
H      -42.49150000     -33.51940000     -70.63430000
H      -42.15820000     -31.78610000     -74.67240000
H      -42.42650000     -34.08780000     -75.54970000
C      -42.05490000     -31.06540000     -71.99340000
H      -42.48170000     -30.40800000     -72.75840000
H      -40.94250000     -30.93120000     -71.81440000
C      -42.34530000     -36.16270000     -71.54170000
H      -42.60120000     -37.06320000     -72.16010000
H      -41.33460000     -36.22390000     -71.13880000
S      -43.06620000     -30.75430000     -70.45870000
S      -43.36490000     -36.31050000     -69.91050000
C      -44.76580000     -31.16480000     -70.98890000
H      -45.09630000     -30.35910000     -71.72060000
H      -44.88690000     -32.08190000     -71.63420000
C      -45.07050000     -36.14450000     -70.46400000
H      -45.56370000     -36.79310000     -69.66590000
H      -45.26870000     -36.59000000     -71.47520000
C      -45.45480000     -34.65840000     -70.48890000
H      -45.28940000     -34.20520000     -69.48550000
H      -44.79870000     -34.15110000     -71.18130000
C      -45.78140000     -31.33680000     -69.80940000
H      -45.78570000     -30.42050000     -69.35780000
H      -45.44620000     -32.07260000     -69.11240000
C      -47.11350000     -31.68430000     -70.32730000
C      -48.14020000     -30.80540000     -70.39370000
C      -47.55410000     -33.03850000     -70.80790000
H      -48.14380000     -29.74310000     -70.20850000
C      -48.85130000     -33.07240000     -71.24280000
C      -46.94010000     -34.39620000     -70.81500000
C      -47.89370000     -35.35180000     -71.13800000
S      -49.68640000     -31.54900000     -71.06400000
S      -49.43170000     -34.68650000     -71.58180000
H      -47.79190000     -36.43970000     -71.00990000
