40
Properties=species:S:1:pos:R:3 #=T CELL(abcABC):=T 1.889726e+02=T 90.00000=T Traj:=T positionsangstrom=T Step:=T 0=T Bead:=T pbc="F F F"
C      -43.37590000     -36.11020000     -69.02250000
C      -44.45350000     -35.25220000     -68.65800000
C      -45.72170000     -35.63450000     -69.08600000
C      -45.91990000     -36.75870000     -69.94840000
C      -44.83550000     -37.61830000     -70.21250000
C      -43.51260000     -37.23080000     -69.83500000
H      -42.37740000     -35.81670000     -68.69750000
H      -46.66970000     -35.10850000     -69.00450000
H      -44.91500000     -38.49770000     -70.78060000
H      -42.61250000     -37.90030000     -70.04360000
C      -47.34050000     -37.13770000     -70.36240000
H      -47.97380000     -37.56600000     -69.57480000
H      -47.43630000     -37.89760000     -71.10830000
C      -44.23300000     -34.09030000     -67.69540000
H      -45.01230000     -33.81280000     -67.07320000
H      -43.32140000     -34.22860000     -67.02030000
S      -48.28490000     -35.65650000     -71.08560000
S      -43.87930000     -32.58300000     -68.80030000
C      -46.90820000     -34.87680000     -72.23410000
H      -45.87800000     -34.90680000     -71.58560000
H      -46.82050000     -35.66280000     -73.11490000
C      -45.59170000     -32.51500000     -69.54800000
H      -46.19760000     -32.71070000     -68.67060000
H      -45.86270000     -33.43030000     -70.05870000
C      -46.02060000     -31.18530000     -70.22310000
H      -47.07860000     -31.23770000     -70.54200000
H      -45.90020000     -30.32310000     -69.53860000
C      -47.23080000     -33.45860000     -72.62450000
H      -47.55760000     -32.76130000     -71.75600000
H      -48.11540000     -33.55810000     -73.20320000
C      -46.13090000     -32.69120000     -73.34570000
C      -45.79010000     -32.82730000     -74.69010000
C      -45.44600000     -31.52210000     -72.74790000
H      -46.23690000     -33.54950000     -75.39740000
C      -44.61400000     -30.86000000     -73.67150000
C      -45.17890000     -30.89590000     -71.41040000
C      -44.33540000     -29.87530000     -71.36660000
S      -44.76920000     -31.55450000     -75.33310000
S      -43.61410000     -29.56430000     -72.97860000
H      -43.99410000     -29.28070000     -70.54880000
