40
Properties=species:S:1:pos:R:3 #=T CELL(abcABC):=T 1.889726e+02=T 90.00000=T Traj:=T positionsangstrom=T Step:=T 0=T Bead:=T pbc="F F F"
C      -42.72720000     -35.48420000     -72.83760000
C      -42.22940000     -35.16080000     -71.59030000
C      -42.00360000     -33.72810000     -71.31610000
C      -42.20260000     -32.80850000     -72.35120000
C      -42.52270000     -33.19100000     -73.66370000
C      -42.85690000     -34.55770000     -73.85920000
H      -42.90120000     -36.48330000     -73.14540000
H      -41.57970000     -33.35660000     -70.35340000
H      -42.66940000     -32.37400000     -74.35280000
H      -43.03780000     -34.80200000     -74.85300000
C      -41.92840000     -31.38240000     -72.03830000
H      -42.16260000     -30.67390000     -72.93560000
H      -40.90360000     -31.12340000     -71.71670000
C      -42.18640000     -36.17520000     -70.49090000
H      -42.05420000     -37.23500000     -70.96980000
H      -41.25350000     -36.02530000     -69.87660000
S      -43.01810000     -30.76900000     -70.62940000
S      -43.60060000     -36.07520000     -69.29230000
C      -44.68530000     -31.14640000     -71.32990000
H      -44.79620000     -30.29870000     -72.02410000
H      -44.67760000     -32.21060000     -71.75630000
C      -45.13030000     -35.85600000     -70.28630000
H      -45.88550000     -36.70440000     -70.25790000
H      -44.78630000     -35.78430000     -71.30240000
C      -45.82150000     -34.59620000     -69.90070000
H      -46.22700000     -34.76420000     -68.89140000
H      -45.03210000     -33.83690000     -69.83630000
C      -45.72060000     -31.08550000     -70.24000000
H      -45.80940000     -30.09660000     -69.74090000
H      -45.35900000     -31.86590000     -69.57960000
C      -47.07870000     -31.56270000     -70.85700000
C      -47.98980000     -30.62730000     -71.31140000
C      -47.53230000     -32.88460000     -70.98670000
H      -47.84600000     -29.53300000     -71.24370000
C      -48.78900000     -32.94830000     -71.59120000
C      -47.02550000     -34.28480000     -70.77890000
C      -47.87600000     -35.23620000     -71.24570000
S      -49.41380000     -31.35790000     -72.02970000
S      -49.30270000     -34.55150000     -71.99070000
H      -47.79610000     -36.30010000     -71.18930000
