40
Properties=species:S:1:pos:R:3 #=T CELL(abcABC):=T 1.889726e+02=T 90.00000=T Traj:=T positionsangstrom=T Step:=T 0=T Bead:=T pbc="F F F"
C      -42.94130000     -35.62310000     -72.63250000
C      -42.57310000     -35.17670000     -71.41020000
C      -42.32670000     -33.84800000     -71.20090000
C      -42.37790000     -32.91600000     -72.22570000
C      -42.92380000     -33.33690000     -73.52130000
C      -43.22330000     -34.70090000     -73.64370000
H      -43.23570000     -36.63940000     -72.85410000
H      -42.00340000     -33.53360000     -70.20850000
H      -42.99690000     -32.63400000     -74.36990000
H      -43.66820000     -34.97640000     -74.57440000
C      -42.00900000     -31.42090000     -72.06950000
H      -42.19640000     -30.87460000     -72.94550000
H      -40.87340000     -31.36540000     -71.91200000
C      -42.34610000     -36.16740000     -70.30630000
H      -42.32240000     -37.10580000     -70.77990000
H      -41.46770000     -35.91290000     -69.76780000
S      -42.98080000     -30.55150000     -70.70910000
S      -43.60590000     -36.07830000     -68.92290000
C      -44.64900000     -30.49290000     -71.53340000
H      -44.86050000     -29.45100000     -71.86300000
H      -44.67540000     -31.03820000     -72.50340000
C      -45.27680000     -35.92770000     -69.74580000
H      -45.89170000     -36.03420000     -68.90250000
H      -45.32250000     -36.68600000     -70.64750000
C      -45.51700000     -34.49780000     -70.27510000
H      -45.35390000     -33.79250000     -69.47460000
H      -44.70820000     -34.22540000     -71.01190000
C      -45.61850000     -31.02630000     -70.46090000
H      -45.81870000     -30.19030000     -69.78150000
H      -45.19230000     -31.81120000     -69.85950000
C      -46.99060000     -31.57610000     -70.98800000
C      -47.90320000     -30.67630000     -71.47800000
C      -47.34290000     -32.97090000     -71.20330000
H      -47.83720000     -29.60270000     -71.35060000
C      -48.63520000     -32.97870000     -71.79170000
C      -46.84050000     -34.26360000     -70.87500000
C      -47.64740000     -35.26310000     -71.33100000
S      -49.28020000     -31.46820000     -72.17120000
S      -49.12120000     -34.64080000     -72.13480000
H      -47.43500000     -36.30840000     -71.13950000
