40
Properties=species:S:1:pos:R:3 #=T CELL(abcABC):=T 1.889726e+02=T 90.00000=T Traj:=T positionsangstrom=T Step:=T 0=T Bead:=T pbc="F F F"
C      -43.13770000     -35.53920000     -72.50050000
C      -42.47520000     -35.17200000     -71.34990000
C      -42.02100000     -33.83220000     -71.22170000
C      -42.31150000     -32.88710000     -72.20330000
C      -42.99680000     -33.28090000     -73.37630000
C      -43.39740000     -34.60740000     -73.52790000
H      -43.44970000     -36.63670000     -72.71060000
H      -41.43260000     -33.55520000     -70.32310000
H      -43.21730000     -32.57270000     -74.20070000
H      -43.79460000     -34.91450000     -74.50940000
C      -41.92350000     -31.52300000     -71.98190000
H      -41.84450000     -30.86650000     -72.91860000
H      -40.92820000     -31.45170000     -71.57280000
C      -42.29800000     -36.22240000     -70.26970000
H      -42.75190000     -37.18110000     -70.57590000
H      -41.28080000     -36.41030000     -69.95850000
S      -43.03050000     -30.69650000     -70.77130000
S      -43.53650000     -35.82310000     -68.90000000
C      -44.65790000     -31.10630000     -71.48100000
H      -44.81080000     -30.49890000     -72.43480000
H      -44.63350000     -32.17630000     -71.65160000
C      -45.18040000     -35.78660000     -69.72870000
H      -45.97960000     -36.34620000     -69.10350000
H      -45.20500000     -36.39340000     -70.62300000
C      -45.66660000     -34.34510000     -69.89740000
H      -45.89700000     -33.99560000     -68.86280000
H      -44.94380000     -33.71040000     -70.39390000
C      -45.76750000     -30.85340000     -70.45390000
H      -45.99220000     -29.80340000     -70.24660000
H      -45.35910000     -31.30330000     -69.48070000
C      -47.00950000     -31.48800000     -71.06190000
C      -47.87500000     -30.68060000     -71.74250000
C      -47.42900000     -32.90510000     -71.15260000
H      -47.83250000     -29.57230000     -71.86630000
C      -48.51560000     -33.05860000     -71.97030000
C      -46.96430000     -34.19780000     -70.66880000
C      -47.77530000     -35.25750000     -71.02530000
S      -49.21680000     -31.51760000     -72.54510000
S      -49.06560000     -34.69680000     -72.17450000
H      -47.82330000     -36.38220000     -70.96090000
