40
Properties=species:S:1:pos:R:3 #=T CELL(abcABC):=T 1.889726e+02=T 90.00000=T Traj:=T positionsangstrom=T Step:=T 0=T Bead:=T pbc="F F F"
C      -43.04460000     -35.54230000     -72.65460000
C      -42.53930000     -35.19800000     -71.41590000
C      -42.07390000     -33.87730000     -71.18830000
C      -42.19690000     -32.89440000     -72.19650000
C      -42.85760000     -33.28680000     -73.36920000
C      -43.17430000     -34.61250000     -73.63480000
H      -43.47530000     -36.52790000     -72.78350000
H      -41.49450000     -33.62050000     -70.29740000
H      -42.89760000     -32.47410000     -74.12660000
H      -43.64140000     -34.78870000     -74.62430000
C      -41.86400000     -31.43720000     -71.99900000
H      -42.03560000     -31.03730000     -72.97330000
H      -40.90490000     -31.19030000     -71.67370000
C      -42.26680000     -36.23660000     -70.41710000
H      -42.12530000     -37.19430000     -70.83780000
H      -41.41250000     -36.02770000     -69.80860000
S      -43.00560000     -30.48540000     -70.78100000
S      -43.66070000     -36.33530000     -69.21740000
C      -44.69580000     -30.63200000     -71.47890000
H      -44.93750000     -29.69990000     -71.93420000
H      -44.68030000     -31.34860000     -72.33030000
C      -45.13430000     -35.96770000     -70.28430000
H      -46.00690000     -36.54450000     -69.77900000
H      -45.00720000     -36.25070000     -71.25390000
C      -45.58550000     -34.50470000     -70.14120000
H      -45.54440000     -34.23480000     -69.05760000
H      -44.86640000     -33.87280000     -70.58950000
C      -45.57240000     -31.10270000     -70.37680000
H      -45.63960000     -30.32600000     -69.63310000
H      -45.23160000     -31.99300000     -69.88100000
C      -46.99760000     -31.51060000     -70.84650000
C      -47.93650000     -30.59740000     -71.25300000
C      -47.43680000     -32.88790000     -71.01190000
H      -47.69580000     -29.61230000     -71.28590000
C      -48.64980000     -32.97580000     -71.68050000
C      -46.91820000     -34.23590000     -70.80560000
C      -47.74950000     -35.19300000     -71.33450000
S      -49.30930000     -31.36660000     -72.05070000
S      -49.20650000     -34.59050000     -72.10840000
H      -47.43860000     -36.22830000     -71.29070000
