40
Properties=species:S:1:pos:R:3 #=T CELL(abcABC):=T 1.889726e+02=T 90.00000=T Traj:=T positionsangstrom=T Step:=T 0=T Bead:=T pbc="F F F"
C      -45.25980000     -35.85290000     -67.25950000
C      -45.58740000     -36.10220000     -68.57610000
C      -44.73330000     -35.60520000     -69.57340000
C      -43.39800000     -35.27230000     -69.37970000
C      -42.99920000     -35.10280000     -68.03540000
C      -43.99090000     -35.28140000     -67.01910000
H      -46.01160000     -35.98730000     -66.46070000
H      -45.04630000     -35.57590000     -70.60040000
H      -42.04220000     -35.02870000     -67.71170000
H      -43.81020000     -35.12910000     -65.93390000
C      -42.46230000     -35.05550000     -70.51500000
H      -42.68730000     -35.77310000     -71.33750000
H      -41.46430000     -35.21690000     -70.20740000
C      -47.14440000     -36.35010000     -68.84880000
H      -47.24160000     -37.14930000     -69.62900000
H      -47.55120000     -36.69450000     -67.90260000
S      -42.77380000     -33.41620000     -71.40680000
S      -47.93640000     -34.79910000     -69.19230000
C      -43.69170000     -32.46420000     -70.10040000
H      -44.55570000     -33.11550000     -69.85310000
H      -43.10870000     -32.35340000     -69.15760000
C      -47.80380000     -34.28650000     -70.96590000
H      -48.84680000     -34.35410000     -71.40170000
H      -47.10840000     -34.94410000     -71.53270000
C      -47.19080000     -32.89280000     -71.09980000
H      -47.75350000     -32.05130000     -70.62360000
H      -46.28300000     -32.88880000     -70.57450000
C      -44.30170000     -31.15210000     -70.71660000
H      -43.48720000     -30.47280000     -70.74920000
H      -45.08520000     -30.79820000     -70.10270000
C      -44.67090000     -31.22160000     -72.22300000
C      -43.73060000     -30.63860000     -73.14330000
C      -45.76290000     -31.82240000     -72.95150000
H      -42.83920000     -30.09990000     -73.01530000
C      -45.72940000     -31.58480000     -74.27380000
C      -46.93310000     -32.52060000     -72.56240000
C      -47.74640000     -32.88990000     -73.62450000
S      -44.31980000     -30.78830000     -74.84350000
S      -47.15890000     -32.24180000     -75.16010000
H      -48.56210000     -33.54100000     -73.68440000
