40
Properties=species:S:1:pos:R:3 #=T CELL(abcABC):=T 1.889726e+02=T 90.00000=T Traj:=T positionsangstrom=T Step:=T 0=T Bead:=T pbc="F F F"
C      -42.50000000     -35.85500000     -72.32270000
C      -42.31220000     -35.18550000     -71.06980000
C      -42.06730000     -33.79600000     -71.15480000
C      -42.07810000     -33.00380000     -72.34840000
C      -42.37170000     -33.69650000     -73.49640000
C      -42.43610000     -35.09900000     -73.47210000
H      -42.62190000     -36.91600000     -72.30560000
H      -41.94550000     -33.27130000     -70.22720000
H      -42.26960000     -33.20210000     -74.49550000
H      -42.40990000     -35.60980000     -74.51180000
C      -42.03730000     -31.55920000     -72.45650000
H      -42.27390000     -31.19490000     -73.42620000
H      -40.99450000     -31.22750000     -72.35810000
C      -42.23620000     -35.93650000     -69.75640000
H      -42.21780000     -37.04590000     -69.97330000
H      -41.22770000     -35.73430000     -69.35870000
S      -43.07990000     -30.65710000     -71.28310000
S      -43.52640000     -35.36050000     -68.52160000
C      -44.79830000     -31.08260000     -71.97800000
H      -45.00620000     -30.44600000     -72.85720000
H      -44.79750000     -32.14440000     -72.32250000
C      -45.13670000     -35.47160000     -69.61750000
H      -45.80310000     -36.20480000     -69.25170000
H      -44.70390000     -35.90170000     -70.51070000
C      -45.68380000     -34.08430000     -69.92440000
H      -45.93900000     -33.50920000     -69.05200000
H      -44.94390000     -33.58590000     -70.51620000
C      -45.83380000     -30.93460000     -70.85030000
H      -45.94370000     -29.84480000     -70.59770000
H      -45.56520000     -31.56490000     -70.03640000
C      -47.23150000     -31.45530000     -71.31390000
C      -48.16360000     -30.75020000     -71.97350000
C      -47.62320000     -32.90110000     -71.15690000
H      -48.16650000     -29.65940000     -72.14600000
C      -48.80730000     -33.16230000     -71.81150000
C      -47.00500000     -34.15070000     -70.65450000
C      -47.77230000     -35.22470000     -70.92460000
S      -49.56080000     -31.68990000     -72.54770000
S      -49.26050000     -34.81450000     -71.71920000
H      -47.53420000     -36.22580000     -70.63860000
