40
Properties=species:S:1:pos:R:3 #=T CELL(abcABC):=T 1.889726e+02=T 90.00000=T Traj:=T positionsangstrom=T Step:=T 0=T Bead:=T pbc="F F F"
C      -42.59990000     -35.85810000     -72.33910000
C      -42.44120000     -35.13370000     -71.11740000
C      -42.20640000     -33.71800000     -71.15590000
C      -42.24110000     -32.97530000     -72.33900000
C      -42.44210000     -33.76270000     -73.52290000
C      -42.62830000     -35.13760000     -73.54200000
H      -42.73030000     -36.97670000     -72.43030000
H      -41.96510000     -33.24150000     -70.23340000
H      -42.43800000     -33.26760000     -74.43330000
H      -42.95340000     -35.66710000     -74.44280000
C      -41.95040000     -31.47930000     -72.34980000
H      -42.08890000     -31.08590000     -73.35020000
H      -40.94420000     -31.21570000     -71.95310000
C      -42.23930000     -35.87010000     -69.73480000
H      -42.33550000     -36.97320000     -69.86800000
H      -41.37310000     -35.60620000     -69.19480000
S      -43.10440000     -30.62100000     -71.18910000
S      -43.56560000     -35.42460000     -68.62380000
C      -44.74230000     -30.95720000     -71.86770000
H      -45.00410000     -30.25750000     -72.64310000
H      -44.71040000     -31.93260000     -72.31350000
C      -45.10360000     -35.50510000     -69.46140000
H      -45.87730000     -35.90080000     -68.69600000
H      -45.13580000     -36.19580000     -70.27850000
C      -45.63420000     -34.13820000     -70.02850000
H      -45.68240000     -33.46960000     -69.12050000
H      -44.82030000     -33.65530000     -70.64070000
C      -45.95260000     -30.77400000     -70.78930000
H      -46.07770000     -29.69870000     -70.49210000
H      -45.69320000     -31.12090000     -69.77780000
C      -47.18030000     -31.49760000     -71.33860000
C      -48.09150000     -30.78640000     -72.08030000
C      -47.49280000     -32.90710000     -71.29250000
H      -48.22480000     -29.72450000     -72.25620000
C      -48.70760000     -33.21680000     -71.93220000
C      -46.95450000     -34.10300000     -70.65450000
C      -47.69760000     -35.23670000     -70.83270000
S      -49.52890000     -31.74860000     -72.45730000
S      -49.11620000     -34.87130000     -71.82370000
H      -47.37800000     -36.22020000     -70.60210000
