40
Properties=species:S:1:pos:R:3 #=T CELL(abcABC):=T 1.889726e+02=T 90.00000=T Traj:=T positionsangstrom=T Step:=T 0=T Bead:=T pbc="F F F"
C      -43.33260000     -35.59530000     -72.58860000
C      -42.60400000     -35.25950000     -71.35970000
C      -42.19980000     -33.91370000     -71.23370000
C      -42.36290000     -32.97500000     -72.28910000
C      -42.84390000     -33.38750000     -73.53880000
C      -43.37260000     -34.70670000     -73.64370000
H      -43.66640000     -36.56310000     -72.64340000
H      -41.90400000     -33.51780000     -70.24150000
H      -42.86710000     -32.69560000     -74.34090000
H      -43.72420000     -35.08790000     -74.54500000
C      -41.87780000     -31.57940000     -72.09120000
H      -41.93330000     -31.11660000     -73.05930000
H      -40.82770000     -31.49850000     -71.67630000
C      -42.47330000     -36.11990000     -70.12240000
H      -42.60220000     -37.14330000     -70.39800000
H      -41.42730000     -36.14260000     -69.79590000
S      -42.89100000     -30.64770000     -70.89760000
S      -43.48920000     -35.61070000     -68.63580000
C      -44.63500000     -30.84650000     -71.59460000
H      -44.87800000     -30.26630000     -72.43330000
H      -44.63020000     -31.92110000     -71.96210000
C      -45.22720000     -35.66760000     -69.43560000
H      -45.87360000     -36.01900000     -68.73630000
H      -45.23540000     -36.37740000     -70.26090000
C      -45.53280000     -34.22950000     -70.00910000
H      -45.49180000     -33.44590000     -69.22060000
H      -44.70850000     -33.83930000     -70.63370000
C      -45.85790000     -30.71280000     -70.64730000
H      -46.03680000     -29.61800000     -70.49000000
H      -45.55470000     -31.21610000     -69.67460000
C      -47.09170000     -31.45430000     -71.15580000
C      -48.00410000     -30.74790000     -71.91170000
C      -47.41220000     -32.85820000     -71.20830000
H      -48.03410000     -29.65750000     -72.07130000
C      -48.56150000     -33.16900000     -71.89870000
C      -46.85840000     -34.10880000     -70.69220000
C      -47.66550000     -35.25230000     -70.98270000
S      -49.28490000     -31.76150000     -72.58270000
S      -49.00430000     -34.81700000     -71.96130000
H      -47.41680000     -36.26510000     -70.77300000
