40
Properties=species:S:1:pos:R:3 #=T CELL(abcABC):=T 1.889726e+02=T 90.00000=T Traj:=T positionsangstrom=T Step:=T 0=T Bead:=T pbc="F F F"
C      -42.39990000     -35.84930000     -72.24580000
C      -42.16140000     -35.18340000     -71.06750000
C      -42.01720000     -33.76810000     -71.17300000
C      -42.11390000     -33.08490000     -72.40410000
C      -42.36890000     -33.84550000     -73.59370000
C      -42.42680000     -35.22700000     -73.50270000
H      -42.56870000     -36.89610000     -72.09670000
H      -41.71680000     -33.13880000     -70.30900000
H      -42.77410000     -33.17200000     -74.41810000
H      -42.55030000     -35.79080000     -74.46580000
C      -41.91520000     -31.49260000     -72.36340000
H      -41.91100000     -31.02450000     -73.36280000
H      -40.94340000     -31.40830000     -71.79190000
C      -42.09460000     -35.90760000     -69.73100000
H      -42.03960000     -36.97770000     -69.81540000
H      -41.22480000     -35.56420000     -69.08540000
S      -43.23280000     -30.67800000     -71.29460000
S      -43.55220000     -35.34960000     -68.68370000
C      -44.77960000     -31.35830000     -71.85520000
H      -44.99610000     -31.05070000     -72.90690000
H      -44.75470000     -32.45390000     -71.95880000
C      -45.17530000     -35.58240000     -69.57900000
H      -45.83900000     -36.01410000     -68.85020000
H      -45.09380000     -36.27930000     -70.48080000
C      -45.74510000     -34.20270000     -69.97230000
H      -45.74620000     -33.67760000     -68.97760000
H      -45.00500000     -33.60860000     -70.51600000
C      -45.80460000     -30.91970000     -70.89560000
H      -45.90170000     -29.83780000     -70.91180000
H      -45.47440000     -31.20570000     -69.89650000
C      -47.17800000     -31.49210000     -71.33090000
C      -48.05240000     -30.70200000     -72.00960000
C      -47.58340000     -32.88380000     -71.17770000
H      -47.91730000     -29.69240000     -72.32590000
C      -48.81340000     -33.06080000     -71.76760000
C      -47.09890000     -34.09730000     -70.60790000
C      -47.93450000     -35.16690000     -70.77660000
S      -49.45660000     -31.62760000     -72.60750000
S      -49.34840000     -34.66750000     -71.63420000
H      -47.87870000     -36.17540000     -70.41990000
