40
Properties=species:S:1:pos:R:3 #=T CELL(abcABC):=T 1.889726e+02=T 90.00000=T Traj:=T positionsangstrom=T Step:=T 0=T Bead:=T pbc="F F F"
C      -42.43840000     -35.86370000     -72.28280000
C      -42.24100000     -35.24140000     -71.04810000
C      -42.03410000     -33.85200000     -71.19280000
C      -42.06720000     -33.13110000     -72.40870000
C      -42.36250000     -33.79180000     -73.61230000
C      -42.52210000     -35.18880000     -73.53130000
H      -42.46620000     -36.98240000     -72.24820000
H      -41.82470000     -33.20860000     -70.30510000
H      -42.28480000     -33.21790000     -74.52950000
H      -42.67440000     -35.73150000     -74.44030000
C      -41.84310000     -31.64270000     -72.45250000
H      -42.05960000     -31.26160000     -73.45800000
H      -40.82060000     -31.35260000     -72.24270000
C      -42.30580000     -36.01820000     -69.79840000
H      -42.68380000     -37.05930000     -70.04770000
H      -41.37640000     -36.11590000     -69.23860000
S      -42.94230000     -30.64450000     -71.30150000
S      -43.56050000     -35.40020000     -68.64420000
C      -44.67450000     -31.23960000     -71.79290000
H      -44.83710000     -30.77390000     -72.73220000
H      -44.59390000     -32.31640000     -71.85440000
C      -45.15110000     -35.37460000     -69.66430000
H      -45.77050000     -36.19650000     -69.27930000
H      -44.78310000     -35.65010000     -70.64500000
C      -45.90150000     -34.04490000     -69.74770000
H      -46.09160000     -33.54950000     -68.76510000
H      -45.18530000     -33.36620000     -70.22270000
C      -45.80060000     -30.89900000     -70.89130000
H      -45.94780000     -29.81120000     -70.88230000
H      -45.47870000     -31.09920000     -69.83520000
C      -47.10840000     -31.54870000     -71.43140000
C      -48.02150000     -30.76620000     -72.12590000
C      -47.61460000     -32.89950000     -71.28320000
H      -47.89790000     -29.70680000     -72.35040000
C      -48.86360000     -33.08190000     -71.86790000
C      -47.12690000     -34.05130000     -70.53520000
C      -47.99790000     -35.10720000     -70.53880000
S      -49.50390000     -31.63070000     -72.64160000
S      -49.41920000     -34.69230000     -71.55820000
H      -47.87550000     -36.10990000     -70.06960000
