40
Properties=species:S:1:pos:R:3 #=T CELL(abcABC):=T 1.889726e+02=T 90.00000=T Traj:=T positionsangstrom=T Step:=T 0=T Bead:=T pbc="F F F"
C      -43.10730000     -35.65100000     -72.48730000
C      -42.50700000     -35.18770000     -71.26620000
C      -42.15640000     -33.81230000     -71.19930000
C      -42.43730000     -32.93320000     -72.26500000
C      -42.94340000     -33.41730000     -73.48780000
C      -43.32100000     -34.74500000     -73.53910000
H      -43.47910000     -36.69020000     -72.46860000
H      -41.75440000     -33.41150000     -70.22530000
H      -43.04870000     -32.69210000     -74.28710000
H      -43.76240000     -35.08470000     -74.47760000
C      -41.96530000     -31.52990000     -72.10600000
H      -41.99730000     -30.94850000     -73.03990000
H      -40.92000000     -31.47630000     -71.81210000
C      -42.49070000     -36.20430000     -70.12430000
H      -43.04620000     -37.05860000     -70.51870000
H      -41.52430000     -36.51400000     -69.69380000
S      -43.07900000     -30.69840000     -70.85130000
S      -43.47190000     -35.57010000     -68.61060000
C      -44.63970000     -30.98440000     -71.72890000
H      -44.81760000     -30.11890000     -72.40020000
H      -44.56970000     -31.88640000     -72.30240000
C      -45.21630000     -35.44360000     -69.19370000
H      -45.76690000     -35.42910000     -68.22070000
H      -45.48290000     -36.44030000     -69.69250000
C      -45.56950000     -34.12420000     -69.99960000
H      -45.76780000     -33.26300000     -69.29950000
H      -44.65890000     -33.81060000     -70.62180000
C      -45.71760000     -30.99620000     -70.73760000
H      -45.89130000     -29.95670000     -70.40950000
H      -45.53860000     -31.67220000     -69.92040000
C      -47.01180000     -31.53460000     -71.33820000
C      -47.90920000     -30.74030000     -71.95680000
C      -47.33890000     -32.91590000     -71.40980000
H      -47.80940000     -29.64160000     -71.96930000
C      -48.54890000     -33.14980000     -72.00080000
C      -46.79850000     -34.14320000     -70.88400000
C      -47.57680000     -35.24940000     -71.15520000
S      -49.31160000     -31.69260000     -72.52240000
S      -49.04310000     -34.81410000     -71.94280000
H      -47.29920000     -36.13440000     -70.70470000
