40
Properties=species:S:1:pos:R:3 #=T CELL(abcABC):=T 1.889726e+02=T 90.00000=T Traj:=T positionsangstrom=T Step:=T 0=T Bead:=T pbc="F F F"
C      -43.19680000     -36.39020000     -72.25740000
C      -42.79600000     -35.72110000     -71.09780000
C      -42.04660000     -34.48900000     -71.16700000
C      -41.84540000     -33.91890000     -72.39370000
C      -42.08520000     -34.65300000     -73.55720000
C      -42.77800000     -35.82620000     -73.48350000
H      -43.77050000     -37.31890000     -72.12230000
H      -41.98520000     -33.99660000     -70.20900000
H      -41.74680000     -34.23420000     -74.47380000
H      -42.97050000     -36.30570000     -74.44360000
C      -41.20470000     -32.56670000     -72.52020000
H      -41.02320000     -32.35850000     -73.55810000
H      -40.19940000     -32.49000000     -72.03390000
C      -43.14110000     -36.32820000     -69.78170000
H      -43.68490000     -37.29780000     -69.93610000
H      -42.27190000     -36.68020000     -69.21790000
S      -42.37450000     -31.32580000     -71.77230000
S      -44.01100000     -35.23260000     -68.60420000
C      -44.08540000     -32.10570000     -71.88860000
H      -44.38420000     -32.18130000     -72.95900000
H      -43.90880000     -33.13960000     -71.56700000
C      -45.58800000     -34.95880000     -69.53170000
H      -46.21270000     -35.88520000     -69.48200000
H      -45.39550000     -34.88980000     -70.61510000
C      -46.39860000     -33.72390000     -69.13510000
H      -46.84520000     -33.77070000     -68.12700000
H      -45.82620000     -32.81860000     -69.25760000
C      -45.09620000     -31.22940000     -71.12160000
H      -44.86070000     -30.18480000     -71.40060000
H      -44.92490000     -31.32690000     -69.99300000
C      -46.58490000     -31.50710000     -71.58070000
C      -47.12320000     -30.74600000     -72.61100000
C      -47.54810000     -32.46120000     -71.12960000
H      -46.70110000     -29.92800000     -73.11060000
C      -48.78870000     -32.38920000     -71.81720000
C      -47.59170000     -33.43750000     -70.06220000
C      -48.85180000     -33.92740000     -69.91790000
S      -48.78060000     -31.19480000     -73.09440000
S      -49.96970000     -33.43700000     -71.14910000
H      -49.12370000     -34.74170000     -69.26400000
