40
Properties=species:S:1:pos:R:3 #=T CELL(abcABC):=T 1.889726e+02=T 90.00000=T Traj:=T positionsangstrom=T Step:=T 0=T Bead:=T pbc="F F F"
C      -42.63770000     -35.91650000     -72.39970000
C      -42.45890000     -35.31490000     -71.15720000
C      -42.16820000     -33.95230000     -71.15250000
C      -42.12760000     -33.16470000     -72.30540000
C      -42.21840000     -33.78440000     -73.53780000
C      -42.51620000     -35.16990000     -73.56910000
H      -42.87650000     -36.98680000     -72.52770000
H      -42.10080000     -33.45050000     -70.21040000
H      -41.97030000     -33.34660000     -74.45530000
H      -42.75390000     -35.59670000     -74.49640000
C      -41.81740000     -31.69730000     -72.35040000
H      -41.76220000     -31.36500000     -73.41640000
H      -40.87350000     -31.43350000     -71.91800000
C      -42.27560000     -36.03250000     -69.79390000
H      -42.23150000     -37.11310000     -69.86170000
H      -41.33690000     -35.63360000     -69.47160000
S      -42.99230000     -30.73170000     -71.26630000
S      -43.70120000     -35.39560000     -68.61160000
C      -44.57150000     -31.25740000     -72.07840000
H      -44.64030000     -30.77490000     -73.07190000
H      -44.53610000     -32.36030000     -72.25440000
C      -45.15020000     -35.42990000     -69.73350000
H      -45.74230000     -36.34160000     -69.48260000
H      -44.86790000     -35.54670000     -70.76040000
C      -45.99770000     -34.17000000     -69.46580000
H      -46.43070000     -34.16730000     -68.46520000
H      -45.34110000     -33.30160000     -69.62590000
C      -45.66520000     -30.88650000     -71.10440000
H      -45.77950000     -29.81400000     -71.13620000
H      -45.42170000     -31.21670000     -70.09440000
C      -47.05960000     -31.46880000     -71.43560000
C      -47.94520000     -30.77450000     -72.27760000
C      -47.49910000     -32.79810000     -71.12550000
H      -47.75920000     -29.75090000     -72.65800000
C      -48.79640000     -32.92960000     -71.66880000
C      -47.08500000     -34.01100000     -70.42030000
C      -47.99690000     -35.00440000     -70.67420000
S      -49.41220000     -31.65280000     -72.68560000
S      -49.36010000     -34.55790000     -71.53510000
H      -48.00890000     -36.01330000     -70.19860000
