40
Properties=species:S:1:pos:R:3 #=T CELL(abcABC):=T 1.889726e+02=T 90.00000=T Traj:=T positionsangstrom=T Step:=T 0=T Bead:=T pbc="F F F"
C      -43.18800000     -36.34660000     -72.30990000
C      -42.69260000     -35.77290000     -71.06380000
C      -41.98580000     -34.57030000     -71.09210000
C      -41.83870000     -33.86220000     -72.29460000
C      -42.16200000     -34.50330000     -73.52340000
C      -42.83000000     -35.69970000     -73.52810000
H      -43.76980000     -37.24790000     -72.13460000
H      -41.54350000     -34.06000000     -70.17680000
H      -42.02100000     -33.99370000     -74.42970000
H      -43.10810000     -36.19600000     -74.47830000
C      -41.29060000     -32.42890000     -72.28600000
H      -41.01310000     -32.09130000     -73.31230000
H      -40.47390000     -32.32230000     -71.58490000
C      -43.08070000     -36.40130000     -69.70260000
H      -43.60460000     -37.31450000     -69.84720000
H      -42.19050000     -36.55040000     -69.13040000
S      -42.53230000     -31.24090000     -71.68050000
S      -44.07390000     -35.17680000     -68.64970000
C      -44.10090000     -32.06560000     -72.01580000
H      -44.27580000     -32.16880000     -73.06150000
H      -44.04950000     -33.07480000     -71.55940000
C      -45.64010000     -34.94230000     -69.59840000
H      -46.27310000     -35.80900000     -69.45380000
H      -45.43830000     -34.85550000     -70.67680000
C      -46.45900000     -33.76870000     -69.06760000
H      -46.86680000     -34.09020000     -68.14430000
H      -45.88700000     -32.88880000     -68.68310000
C      -45.12020000     -31.19990000     -71.30490000
H      -44.89390000     -30.20860000     -71.61290000
H      -44.93690000     -31.21440000     -70.22740000
C      -46.55420000     -31.50770000     -71.75260000
C      -47.13070000     -30.79740000     -72.77860000
C      -47.47500000     -32.41930000     -71.16920000
H      -46.59340000     -30.09210000     -73.39290000
C      -48.75530000     -32.45820000     -71.79670000
C      -47.44530000     -33.42230000     -70.05970000
C      -48.62120000     -34.05480000     -69.95590000
S      -48.84610000     -31.25960000     -73.09300000
S      -49.82760000     -33.58460000     -71.12120000
H      -48.83760000     -34.97390000     -69.33950000
