40
Properties=species:S:1:pos:R:3 #=T CELL(abcABC):=T 1.889726e+02=T 90.00000=T Traj:=T positionsangstrom=T Step:=T 0=T Bead:=T pbc="F F F"
C      -42.74370000     -36.89680000     -72.03610000
C      -42.84130000     -35.98490000     -70.98470000
C      -42.34110000     -34.69370000     -71.22110000
C      -41.82050000     -34.27410000     -72.45930000
C      -41.77040000     -35.25360000     -73.52980000
C      -42.27200000     -36.53980000     -73.34600000
H      -43.16840000     -37.91160000     -71.92420000
H      -42.39700000     -34.02640000     -70.35020000
H      -41.39570000     -34.88950000     -74.46740000
H      -42.34650000     -37.24360000     -74.18730000
C      -41.40550000     -32.86330000     -72.61350000
H      -41.48440000     -32.54180000     -73.64650000
H      -40.45280000     -32.47940000     -72.37110000
C      -43.28560000     -36.40370000     -69.64340000
H      -43.79880000     -37.36790000     -69.63770000
H      -42.37510000     -36.70100000     -69.02930000
S      -42.41090000     -31.68180000     -71.60180000
S      -44.16750000     -35.27810000     -68.60830000
C      -44.09350000     -31.51470000     -72.36470000
H      -44.04290000     -30.69880000     -73.09580000
H      -44.45910000     -32.39760000     -72.85720000
C      -45.44140000     -34.72220000     -69.90030000
H      -46.00200000     -35.53690000     -70.37510000
H      -44.91250000     -34.16140000     -70.72030000
C      -46.48120000     -33.81940000     -69.22180000
H      -46.90530000     -34.39640000     -68.44680000
H      -45.97930000     -32.94870000     -68.65440000
C      -45.05970000     -31.08590000     -71.28580000
H      -44.98660000     -30.03240000     -70.95120000
H      -44.80610000     -31.74330000     -70.43450000
C      -46.52860000     -31.33430000     -71.70170000
C      -47.11800000     -30.60260000     -72.74440000
C      -47.52920000     -32.22560000     -71.09940000
H      -46.43170000     -29.92180000     -73.28960000
C      -48.80730000     -32.01400000     -71.70130000
C      -47.64110000     -33.26060000     -70.07160000
C      -48.90800000     -33.81160000     -69.94290000
S      -48.77930000     -30.79680000     -72.98240000
S      -50.04740000     -33.08550000     -71.05570000
H      -49.21110000     -34.64480000     -69.46530000
