40
Properties=species:S:1:pos:R:3 #=T CELL(abcABC):=T 1.889726e+02=T 90.00000=T Traj:=T positionsangstrom=T Step:=T 0=T Bead:=T pbc="F F F"
C      -42.93400000     -37.02510000     -72.01700000
C      -42.94750000     -36.04630000     -70.97000000
C      -42.39390000     -34.84720000     -71.31570000
C      -41.93850000     -34.60080000     -72.57870000
C      -41.92200000     -35.50590000     -73.58160000
C      -42.47600000     -36.71750000     -73.26550000
H      -43.35650000     -38.01080000     -71.86460000
H      -42.37210000     -34.12480000     -70.50900000
H      -41.52100000     -35.06930000     -74.54860000
H      -42.71620000     -37.47820000     -74.04250000
C      -41.47470000     -33.24270000     -72.89920000
H      -41.55460000     -33.11150000     -74.08540000
H      -40.33120000     -33.18520000     -72.75430000
C      -43.47010000     -36.53800000     -69.64120000
H      -43.98480000     -37.46450000     -69.75090000
H      -42.68480000     -36.91060000     -68.99210000
S      -42.26390000     -31.75480000     -72.04510000
S      -44.41320000     -35.38140000     -68.53110000
C      -44.04440000     -32.13740000     -72.21560000
H      -44.45330000     -31.90880000     -73.23640000
H      -44.16350000     -33.21160000     -71.98930000
C      -45.73120000     -35.04180000     -69.78870000
H      -46.48790000     -35.81320000     -69.94710000
H      -45.20630000     -34.93280000     -70.74480000
C      -46.33860000     -33.69630000     -69.36520000
H      -46.60020000     -33.74730000     -68.35410000
H      -45.60080000     -32.89500000     -69.51090000
C      -44.91210000     -31.25790000     -71.28590000
H      -44.54160000     -30.22910000     -71.38230000
H      -44.78470000     -31.57650000     -70.27450000
C      -46.39400000     -31.23170000     -71.61680000
C      -46.96240000     -30.22620000     -72.35550000
C      -47.43070000     -32.13620000     -71.13350000
H      -46.33210000     -29.49140000     -72.77810000
C      -48.68450000     -31.77150000     -71.64930000
C      -47.50590000     -33.22160000     -70.17200000
C      -48.80230000     -33.55300000     -69.95990000
S      -48.66180000     -30.32720000     -72.67780000
S      -49.94180000     -32.69630000     -71.01180000
H      -49.14980000     -34.36310000     -69.25200000
