40
Properties=species:S:1:pos:R:3 #=T CELL(abcABC):=T 1.889726e+02=T 90.00000=T Traj:=T positionsangstrom=T Step:=T 0=T Bead:=T pbc="F F F"
C      -43.86880000     -37.09630000     -72.27170000
C      -43.19690000     -36.39910000     -71.28600000
C      -42.48960000     -35.23390000     -71.61630000
C      -42.44490000     -34.75060000     -72.92940000
C      -43.17650000     -35.42710000     -73.89780000
C      -43.81870000     -36.66590000     -73.60270000
H      -44.37840000     -37.97570000     -72.04790000
H      -41.79460000     -34.90800000     -70.84080000
H      -43.04380000     -35.14320000     -74.96340000
H      -44.34250000     -37.23970000     -74.41110000
C      -41.84080000     -33.41580000     -73.14630000
H      -42.10290000     -32.94710000     -74.07340000
H      -40.78380000     -33.58410000     -73.15580000
C      -43.34890000     -36.91950000     -69.81910000
H      -43.95210000     -37.80770000     -69.73450000
H      -42.35330000     -37.20870000     -69.41180000
S      -42.33450000     -32.11930000     -71.82910000
S      -43.92550000     -35.53120000     -68.70380000
C      -44.09550000     -31.94230000     -72.19540000
H      -44.18790000     -31.73840000     -73.27740000
H      -44.59650000     -32.91070000     -71.93430000
C      -45.59000000     -35.09210000     -69.55290000
H      -46.33860000     -35.73870000     -69.05300000
H      -45.44900000     -35.26960000     -70.63160000
C      -45.84400000     -33.54770000     -69.34010000
H      -45.96290000     -33.52100000     -68.23150000
H      -44.94380000     -32.97440000     -69.47460000
C      -44.75780000     -30.72620000     -71.43530000
H      -44.42510000     -29.78600000     -71.80330000
H      -44.47700000     -30.83390000     -70.34590000
C      -46.20430000     -30.83040000     -71.72370000
C      -46.88270000     -29.97400000     -72.51750000
C      -47.09300000     -31.71790000     -70.95770000
H      -46.53490000     -29.17760000     -73.22370000
C      -48.39250000     -31.59920000     -71.34560000
C      -47.04630000     -32.86630000     -70.01540000
C      -48.27000000     -33.32130000     -69.65730000
S      -48.56690000     -30.42060000     -72.59570000
S      -49.63420000     -32.58830000     -70.53220000
H      -48.43550000     -34.01520000     -68.78740000
