40
Properties=species:S:1:pos:R:3 #=T CELL(abcABC):=T 1.889726e+02=T 90.00000=T Traj:=T positionsangstrom=T Step:=T 0=T Bead:=T pbc="F F F"
C      -42.65390000     -33.28950000     -74.27990000
C      -43.17200000     -34.01780000     -73.24500000
C      -43.32170000     -33.41380000     -71.98510000
C      -42.96230000     -32.09200000     -71.75520000
C      -42.27510000     -31.44360000     -72.84620000
C      -42.21360000     -31.99310000     -74.10890000
H      -42.73540000     -33.70650000     -75.27680000
H      -43.67540000     -33.99020000     -71.14950000
H      -42.08290000     -30.39280000     -72.77570000
H      -41.69000000     -31.48190000     -74.94960000
C      -43.01270000     -31.60860000     -70.36330000
H      -41.92110000     -31.51190000     -70.09340000
H      -43.40780000     -32.44110000     -69.72880000
C      -43.94070000     -35.28790000     -73.47070000
H      -43.38290000     -36.02700000     -74.06390000
H      -44.12450000     -35.71200000     -72.57090000
S      -44.16330000     -30.17310000     -70.14490000
S      -45.52260000     -35.16700000     -74.32210000
C      -45.53400000     -30.61260000     -71.36340000
H      -45.79710000     -29.64290000     -71.80580000
H      -45.02350000     -31.21760000     -72.08610000
C      -46.31830000     -33.58220000     -73.67560000
H      -46.54460000     -32.86330000     -74.46800000
H      -45.58530000     -33.03380000     -73.16510000
C      -47.55010000     -34.02260000     -72.76660000
H      -48.34440000     -33.28710000     -72.58960000
H      -48.10600000     -34.82100000     -73.39760000
C      -46.88390000     -31.26190000     -70.85130000
H      -47.32150000     -31.48250000     -71.79600000
H      -47.44850000     -30.47930000     -70.40010000
C      -46.79670000     -32.47810000     -69.87590000
C      -46.62670000     -32.21220000     -68.52850000
C      -46.93380000     -33.87980000     -70.25920000
H      -46.57210000     -31.26320000     -68.01640000
C      -46.81530000     -34.70330000     -69.09180000
C      -47.12620000     -34.65430000     -71.51960000
C      -47.05850000     -35.98720000     -71.27590000
S      -46.45420000     -33.73960000     -67.65650000
S      -46.85730000     -36.40640000     -69.58660000
H      -47.13160000     -36.77050000     -72.03530000
