40
Properties=species:S:1:pos:R:3 #=T CELL(abcABC):=T 1.889726e+02=T 90.00000=T Traj:=T positionsangstrom=T Step:=T 0=T Bead:=T pbc="F F F"
C      -44.91950000     -36.55480000     -72.27970000
C      -43.91530000     -36.37330000     -71.31930000
C      -42.87440000     -35.45690000     -71.59620000
C      -42.74590000     -34.87130000     -72.87500000
C      -43.75190000     -35.06760000     -73.80430000
C      -44.80350000     -35.91770000     -73.52570000
H      -45.74580000     -37.20510000     -72.03310000
H      -42.17350000     -35.12650000     -70.80400000
H      -43.69740000     -34.43040000     -74.70220000
H      -45.55800000     -35.98760000     -74.30910000
C      -41.65690000     -33.87390000     -73.16930000
H      -41.29390000     -33.94890000     -74.19760000
H      -40.73950000     -34.05860000     -72.63370000
C      -44.14710000     -37.14000000     -70.10210000
H      -44.90250000     -37.90950000     -70.08540000
H      -43.25480000     -37.75820000     -69.95190000
S      -42.06270000     -32.04340000     -72.72410000
S      -44.23730000     -36.04590000     -68.61770000
C      -43.87650000     -32.14440000     -72.26790000
H      -44.42490000     -32.23910000     -73.23700000
H      -44.07350000     -33.03610000     -71.70750000
C      -45.74050000     -35.05470000     -68.88860000
H      -46.37270000     -34.81130000     -68.02300000
H      -46.27560000     -35.70500000     -69.60570000
C      -45.41240000     -33.67410000     -69.44260000
H      -44.89300000     -32.95180000     -68.81090000
H      -44.75100000     -33.79030000     -70.25100000
C      -44.35530000     -30.95830000     -71.43490000
H      -43.79090000     -30.07470000     -71.76640000
H      -44.07230000     -31.19590000     -70.32370000
C      -45.83770000     -30.82140000     -71.57000000
C      -46.51550000     -29.88050000     -72.26740000
C      -46.76900000     -31.81030000     -70.95170000
H      -46.08600000     -29.19850000     -72.95630000
C      -48.05590000     -31.45980000     -71.21350000
C      -46.62000000     -32.90780000     -69.97980000
C      -47.86900000     -33.41890000     -69.72640000
S      -48.29280000     -30.03450000     -72.19140000
S      -49.23590000     -32.55670000     -70.48700000
H      -48.18230000     -34.35000000     -69.24240000
