40
Properties=species:S:1:pos:R:3 #=T CELL(abcABC):=T 1.889726e+02=T 90.00000=T Traj:=T positionsangstrom=T Step:=T 0=T Bead:=T pbc="F F F"
C      -45.22770000     -36.58200000     -72.25430000
C      -44.09450000     -36.37080000     -71.42330000
C      -43.06260000     -35.50580000     -71.78770000
C      -43.06150000     -35.05490000     -73.09820000
C      -44.16360000     -35.33200000     -73.92170000
C      -45.25720000     -36.04670000     -73.53290000
H      -46.01380000     -37.22200000     -71.90940000
H      -42.20920000     -35.28940000     -71.07880000
H      -44.22300000     -34.93270000     -74.94390000
H      -46.02190000     -36.26510000     -74.28190000
C      -41.93510000     -34.18620000     -73.64900000
H      -42.03250000     -34.15940000     -74.71420000
H      -40.90730000     -34.55250000     -73.35530000
C      -44.09260000     -36.99100000     -70.05880000
H      -45.01000000     -37.59110000     -70.00720000
H      -43.14430000     -37.53020000     -69.93690000
S      -41.92910000     -32.43880000     -73.01260000
S      -44.35630000     -35.89400000     -68.47530000
C      -43.69220000     -32.01170000     -72.99800000
H      -43.94560000     -31.18960000     -73.65310000
H      -44.30150000     -32.84810000     -73.34870000
C      -45.86950000     -35.12320000     -69.06170000
H      -46.43080000     -34.87560000     -68.21350000
H      -46.41060000     -35.85870000     -69.58220000
C      -45.57120000     -33.80840000     -69.86000000
H      -44.67340000     -33.35350000     -69.40050000
H      -45.26530000     -33.99170000     -70.93640000
C      -44.13240000     -31.54260000     -71.55750000
H      -43.48240000     -30.73110000     -71.47800000
H      -43.92790000     -32.29160000     -70.81050000
C      -45.61440000     -31.14920000     -71.48020000
C      -45.98730000     -29.94340000     -72.01140000
C      -46.73120000     -31.81950000     -70.80390000
H      -45.39460000     -29.22690000     -72.55450000
C      -47.89620000     -31.16610000     -70.87940000
C      -46.78370000     -33.00220000     -69.96700000
C      -48.05540000     -33.20760000     -69.49930000
S      -47.73700000     -29.68100000     -71.75990000
S      -49.24720000     -32.05160000     -70.09330000
H      -48.44730000     -34.06760000     -69.00310000
