40
Properties=species:S:1:pos:R:3 #=T CELL(abcABC):=T 1.889726e+02=T 90.00000=T Traj:=T positionsangstrom=T Step:=T 0=T Bead:=T pbc="F F F"
C      -45.27420000     -32.09540000     -74.91860000
C      -44.67980000     -31.31330000     -73.95700000
C      -43.45400000     -31.77740000     -73.43810000
C      -42.94540000     -33.04920000     -73.80660000
C      -43.67260000     -33.82500000     -74.71840000
C      -44.85820000     -33.37500000     -75.26850000
H      -46.30000000     -31.88250000     -75.21580000
H      -42.78190000     -31.15280000     -72.84480000
H      -43.35450000     -34.72620000     -75.22800000
H      -45.41370000     -33.77610000     -76.02200000
C      -41.64890000     -33.64700000     -73.29080000
H      -40.74710000     -33.16340000     -73.73180000
H      -41.63010000     -34.64330000     -73.70610000
C      -45.27710000     -30.02140000     -73.56290000
H      -44.57030000     -29.29280000     -73.23840000
H      -45.82170000     -29.59980000     -74.41340000
S      -41.50600000     -33.67200000     -71.44760000
S      -46.65340000     -29.96110000     -72.24870000
C      -43.26590000     -33.44490000     -70.85280000
H      -43.29520000     -33.18470000     -69.81180000
H      -43.55340000     -32.52830000     -71.36290000
C      -46.30770000     -31.37840000     -71.18900000
H      -46.44990000     -31.08110000     -70.15160000
H      -45.24520000     -31.57330000     -71.16220000
C      -47.11170000     -32.61650000     -71.54590000
H      -48.02510000     -32.32060000     -72.06080000
H      -46.50640000     -33.24230000     -72.22330000
C      -44.09890000     -34.71330000     -71.18810000
H      -43.42700000     -35.59010000     -71.33330000
H      -44.55800000     -34.55870000     -72.11190000
C      -45.11070000     -35.06930000     -70.09330000
C      -44.80430000     -36.04380000     -69.20470000
C      -46.48770000     -34.42900000     -69.71870000
H      -43.87720000     -36.50900000     -69.00570000
C      -47.05340000     -35.12920000     -68.63160000
C      -47.41580000     -33.46310000     -70.35560000
C      -48.63810000     -33.50200000     -69.76480000
S      -45.93310000     -36.34210000     -67.93780000
S      -48.74710000     -34.57740000     -68.38020000
H      -49.52560000     -32.96480000     -70.13110000
