40
Properties=species:S:1:pos:R:3 #=T CELL(abcABC):=T 1.889726e+02=T 90.00000=T Traj:=T positionsangstrom=T Step:=T 0=T Bead:=T pbc="F F F"
C      -45.52380000     -31.56580000     -74.64710000
C      -44.61430000     -31.20950000     -73.65090000
C      -43.68070000     -32.15670000     -73.22180000
C      -43.50630000     -33.38410000     -73.87170000
C      -44.22910000     -33.60270000     -75.05460000
C      -45.30140000     -32.76290000     -75.39160000
H      -46.28780000     -30.82610000     -74.88120000
H      -43.08100000     -31.89340000     -72.34000000
H      -43.95650000     -34.47310000     -75.65090000
H      -45.88850000     -32.89410000     -76.34820000
C      -42.43560000     -34.39060000     -73.42460000
H      -41.66240000     -34.59310000     -74.18300000
H      -42.98560000     -35.34700000     -73.15310000
C      -44.52190000     -29.85330000     -73.09080000
H      -43.63140000     -29.70960000     -72.51570000
H      -44.62740000     -29.06670000     -73.79260000
S      -41.56230000     -33.90660000     -71.86720000
S      -45.82050000     -29.65730000     -71.76840000
C      -42.66460000     -34.69590000     -70.62170000
H      -42.62090000     -35.76180000     -70.72700000
H      -42.25430000     -34.44790000     -69.60170000
C      -45.97740000     -31.19510000     -70.74570000
H      -46.41560000     -30.84690000     -69.80430000
H      -45.01510000     -31.56080000     -70.46760000
C      -46.77320000     -32.31820000     -71.39390000
H      -47.66010000     -32.02230000     -71.90700000
H      -46.22940000     -32.75930000     -72.24430000
C      -44.09940000     -34.26320000     -70.79120000
H      -44.41260000     -34.35100000     -71.82910000
H      -44.15160000     -33.18870000     -70.59210000
C      -45.04820000     -34.85730000     -69.83960000
C      -44.83880000     -35.93180000     -68.94840000
C      -46.41450000     -34.40140000     -69.81680000
H      -43.91410000     -36.53580000     -68.87420000
C      -47.22840000     -35.20270000     -68.94260000
C      -47.20150000     -33.36010000     -70.44890000
C      -48.53910000     -33.34830000     -70.12070000
S      -46.38360000     -36.42550000     -68.09610000
S      -48.92010000     -34.67360000     -68.97300000
H      -49.27480000     -32.68490000     -70.55290000
