40
Properties=species:S:1:pos:R:3 #=T CELL(abcABC):=T 1.889726e+02=T 90.00000=T Traj:=T positionsangstrom=T Step:=T 0=T Bead:=T pbc="F F F"
C      -45.49380000     -31.68390000     -74.36190000
C      -44.49840000     -31.12780000     -73.53590000
C      -43.31290000     -31.82610000     -73.35230000
C      -43.16390000     -33.09490000     -73.87380000
C      -44.22200000     -33.60590000     -74.64420000
C      -45.38170000     -32.94840000     -74.89300000
H      -46.44500000     -31.15940000     -74.47290000
H      -42.57410000     -31.33350000     -72.68960000
H      -44.16360000     -34.58700000     -75.07680000
H      -46.03690000     -33.35370000     -75.59010000
C      -41.98510000     -34.06410000     -73.59280000
H      -41.14750000     -33.75630000     -74.22590000
H      -42.34210000     -35.05890000     -73.90980000
C      -44.72260000     -29.80240000     -72.87800000
H      -44.00080000     -29.64170000     -72.01920000
H      -44.70570000     -28.88240000     -73.43170000
S      -41.47010000     -34.11720000     -71.77900000
S      -46.41590000     -29.82580000     -72.09670000
C      -42.90610000     -33.75630000     -70.72020000
H      -42.55800000     -34.01140000     -69.70700000
H      -43.08670000     -32.68580000     -70.72270000
C      -46.25300000     -31.39890000     -71.19760000
H      -46.42740000     -31.21440000     -70.12780000
H      -45.21610000     -31.72700000     -71.18850000
C      -47.10630000     -32.57380000     -71.72370000
H      -48.07360000     -32.17190000     -72.05350000
H      -46.60730000     -33.01880000     -72.63110000
C      -44.15840000     -34.58470000     -71.15970000
H      -43.73900000     -35.50760000     -71.72140000
H      -44.62350000     -34.09350000     -71.92410000
C      -45.11640000     -35.00840000     -70.10930000
C      -44.73950000     -35.88400000     -69.13330000
C      -46.42000000     -34.44680000     -69.85310000
H      -43.80720000     -36.29990000     -69.04960000
C      -47.07640000     -35.07160000     -68.80540000
C      -47.36010000     -33.58550000     -70.57000000
C      -48.60340000     -33.62830000     -70.07150000
S      -46.05850000     -36.28520000     -67.98390000
S      -48.74090000     -34.62980000     -68.62670000
H      -49.48360000     -33.12200000     -70.46990000
