40
Properties=species:S:1:pos:R:3 #=T CELL(abcABC):=T 1.889726e+02=T 90.00000=T Traj:=T positionsangstrom=T Step:=T 0=T Bead:=T pbc="F F F"
C      -45.22620000     -36.64990000     -72.17580000
C      -44.02080000     -36.45540000     -71.44840000
C      -43.00680000     -35.66240000     -71.95080000
C      -43.16580000     -35.05860000     -73.21730000
C      -44.33990000     -35.36350000     -73.92000000
C      -45.38510000     -36.09110000     -73.45360000
H      -46.07490000     -37.17850000     -71.65720000
H      -42.06870000     -35.36160000     -71.39880000
H      -44.51870000     -34.88890000     -74.91440000
H      -46.26770000     -36.16640000     -74.13150000
C      -42.18110000     -34.16430000     -73.86700000
H      -42.49480000     -33.88330000     -74.86340000
H      -41.16750000     -34.61320000     -73.84250000
C      -43.80930000     -37.07940000     -70.14130000
H      -44.21440000     -38.08410000     -69.99880000
H      -42.74030000     -37.19590000     -70.10470000
S      -42.00760000     -32.64030000     -72.90750000
S      -44.28470000     -36.08020000     -68.57110000
C      -43.71200000     -31.88680000     -72.86380000
H      -43.59160000     -30.97800000     -73.46800000
H      -44.40980000     -32.64200000     -73.39360000
C      -45.98020000     -35.26690000     -68.91460000
H      -46.39380000     -35.07050000     -67.87330000
H      -46.66020000     -35.99380000     -69.39390000
C      -45.63460000     -33.91930000     -69.69730000
H      -44.86750000     -33.32890000     -69.21950000
H      -45.20890000     -34.26690000     -70.60840000
C      -44.13740000     -31.47810000     -71.48030000
H      -43.50130000     -30.62720000     -71.03530000
H      -44.05840000     -32.39390000     -70.75140000
C      -45.59510000     -30.99720000     -71.50070000
C      -46.04270000     -29.87400000     -72.15530000
C      -46.63360000     -31.68110000     -70.73310000
H      -45.37020000     -29.17020000     -72.63600000
C      -47.80650000     -31.03260000     -70.86820000
C      -46.76540000     -32.97700000     -69.98000000
C      -48.06750000     -33.18430000     -69.70550000
S      -47.73490000     -29.58980000     -71.84040000
S      -49.12740000     -31.76510000     -69.95890000
H      -48.53330000     -34.06950000     -69.20320000
