40
Properties=species:S:1:pos:R:3 #=T CELL(abcABC):=T 1.889726e+02=T 90.00000=T Traj:=T positionsangstrom=T Step:=T 0=T Bead:=T pbc="F F F"
C      -42.60600000     -33.29810000     -74.30720000
C      -43.24800000     -34.06850000     -73.35260000
C      -43.32510000     -33.60970000     -72.05460000
C      -42.91310000     -32.30340000     -71.76540000
C      -42.35890000     -31.49180000     -72.76170000
C      -42.16080000     -32.00510000     -74.03640000
H      -42.52190000     -33.75870000     -75.28590000
H      -43.92270000     -34.16540000     -71.44670000
H      -42.02650000     -30.49460000     -72.48940000
H      -41.74790000     -31.28950000     -74.75370000
C      -43.14670000     -31.68740000     -70.33670000
H      -42.13200000     -31.32190000     -70.07670000
H      -43.34060000     -32.43970000     -69.55520000
C      -43.92160000     -35.35990000     -73.59550000
H      -43.43660000     -35.92490000     -74.47390000
H      -43.98160000     -36.04750000     -72.73820000
S      -44.27260000     -30.24080000     -70.12820000
S      -45.66040000     -35.07420000     -74.46570000
C      -45.66380000     -30.54350000     -71.29350000
H      -45.86390000     -29.54270000     -71.69080000
H      -45.36030000     -31.20630000     -72.13090000
C      -46.29740000     -33.67620000     -73.56960000
H      -46.56520000     -32.98700000     -74.34720000
H      -45.41310000     -33.41810000     -72.94490000
C      -47.63420000     -34.01160000     -72.76960000
H      -48.36380000     -33.21490000     -72.74540000
H      -48.18190000     -34.78060000     -73.32940000
C      -46.93630000     -31.10220000     -70.76460000
H      -47.64090000     -31.27620000     -71.62900000
H      -47.54020000     -30.30290000     -70.17640000
C      -46.78210000     -32.41120000     -69.89320000
C      -46.35050000     -32.25080000     -68.61780000
C      -46.89840000     -33.79660000     -70.29450000
H      -46.27120000     -31.27240000     -68.13490000
C      -46.57250000     -34.62260000     -69.18600000
C      -47.29120000     -34.60680000     -71.44420000
C      -47.25380000     -35.94920000     -71.15570000
S      -46.35590000     -33.73640000     -67.61550000
S      -46.62220000     -36.33460000     -69.54370000
H      -47.36120000     -36.83820000     -71.80730000
