40
Properties=species:S:1:pos:R:3 #=T CELL(abcABC):=T 1.889726e+02=T 90.00000=T Traj:=T positionsangstrom=T Step:=T 0=T Bead:=T pbc="F F F"
C      -45.39660000     -31.56620000     -74.61550000
C      -44.51540000     -31.10760000     -73.64380000
C      -43.47880000     -31.93150000     -73.22180000
C      -43.28520000     -33.19070000     -73.76950000
C      -44.23880000     -33.62890000     -74.69930000
C      -45.31750000     -32.84800000     -75.11260000
H      -46.13010000     -30.84770000     -74.95240000
H      -42.83080000     -31.61710000     -72.40940000
H      -44.19100000     -34.62740000     -75.12890000
H      -46.00270000     -33.21370000     -75.75410000
C      -42.09520000     -34.06100000     -73.59710000
H      -41.27390000     -33.54570000     -74.12600000
H      -42.30540000     -35.10240000     -73.99570000
C      -44.69110000     -29.78060000     -72.98850000
H      -43.80800000     -29.58630000     -72.40850000
H      -44.79250000     -28.97710000     -73.72580000
S      -41.40240000     -34.18860000     -71.88860000
S      -46.22430000     -29.78000000     -71.98240000
C      -42.81710000     -34.16070000     -70.57850000
H      -42.44170000     -34.88420000     -69.84530000
H      -42.92870000     -33.20060000     -70.04130000
C      -46.20960000     -31.25580000     -70.84370000
H      -46.87390000     -30.92060000     -70.06550000
H      -45.23810000     -31.43320000     -70.40590000
C      -46.87060000     -32.46060000     -71.55970000
H      -47.78130000     -32.14120000     -72.08860000
H      -46.21480000     -32.98010000     -72.22840000
C      -44.18440000     -34.53960000     -71.16340000
H      -44.09510000     -35.37560000     -71.85470000
H      -44.62740000     -33.74960000     -71.75260000
C      -45.11240000     -34.97850000     -70.04790000
C      -44.80160000     -35.87100000     -69.07310000
C      -46.50450000     -34.53460000     -69.94630000
H      -43.86120000     -36.19860000     -68.96480000
C      -47.19740000     -35.18000000     -68.95110000
C      -47.34780000     -33.41310000     -70.44030000
C      -48.58930000     -33.43630000     -69.94110000
S      -46.15920000     -36.24470000     -68.02060000
S      -48.85740000     -34.71440000     -68.73310000
H      -49.39180000     -32.75950000     -70.22470000
