40
Properties=species:S:1:pos:R:3 #=T CELL(abcABC):=T 1.889726e+02=T 90.00000=T Traj:=T positionsangstrom=T Step:=T 0=T Bead:=T pbc="F F F"
C      -45.53980000     -31.69840000     -74.35270000
C      -44.46500000     -31.23660000     -73.53930000
C      -43.27360000     -31.99000000     -73.52200000
C      -43.21600000     -33.32410000     -73.99360000
C      -44.32840000     -33.87850000     -74.70360000
C      -45.42160000     -32.99780000     -74.88270000
H      -46.49530000     -31.17800000     -74.38380000
H      -42.32180000     -31.69550000     -73.05290000
H      -44.29370000     -34.90710000     -75.01920000
H      -46.16450000     -33.33560000     -75.51570000
C      -41.98980000     -34.08500000     -73.79240000
H      -41.10290000     -33.64370000     -74.13470000
H      -42.07310000     -35.01310000     -74.36850000
C      -44.47980000     -29.80090000     -72.98550000
H      -43.47760000     -29.63480000     -72.51450000
H      -44.46030000     -29.11680000     -73.78870000
S      -41.55370000     -34.41760000     -72.01760000
S      -45.91830000     -29.36550000     -71.92590000
C      -43.07430000     -35.21530000     -71.42280000
H      -43.70290000     -35.52730000     -72.25840000
H      -42.73340000     -36.03720000     -70.74890000
C      -46.14070000     -30.75500000     -70.73480000
H      -46.98590000     -30.44720000     -70.07840000
H      -45.28170000     -30.81740000     -70.08850000
C      -46.58570000     -32.14820000     -71.27750000
H      -47.28480000     -32.01830000     -72.12670000
H      -45.72080000     -32.71630000     -71.73790000
C      -43.85800000     -34.33630000     -70.43610000
H      -44.07120000     -33.31460000     -70.89030000
H      -43.18480000     -34.02880000     -69.60010000
C      -45.13370000     -34.88390000     -69.78370000
C      -45.04360000     -36.04990000     -69.05440000
C      -46.47380000     -34.37890000     -69.78940000
H      -44.14040000     -36.58780000     -68.89580000
C      -47.35500000     -35.11720000     -69.02780000
C      -47.16430000     -33.12780000     -70.20010000
C      -48.52840000     -33.13350000     -69.88360000
S      -46.53800000     -36.58080000     -68.27590000
S      -48.91340000     -34.44230000     -68.73340000
H      -49.31560000     -32.46760000     -69.99610000
