40
Properties=species:S:1:pos:R:3 #=T CELL(abcABC):=T 1.889726e+02=T 90.00000=T Traj:=T positionsangstrom=T Step:=T 0=T Bead:=T pbc="F F F"
C      -45.07410000     -31.42210000     -74.40790000
C      -44.17550000     -31.11130000     -73.42190000
C      -43.13960000     -31.95590000     -73.15500000
C      -42.82070000     -33.07820000     -73.98560000
C      -43.70340000     -33.31310000     -75.09510000
C      -44.79890000     -32.51340000     -75.26950000
H      -45.99730000     -30.89170000     -74.59610000
H      -42.48300000     -31.81590000     -72.26090000
H      -43.33640000     -33.96350000     -75.85820000
H      -45.42220000     -32.65240000     -76.07850000
C      -41.67640000     -34.00640000     -73.68980000
H      -40.74710000     -33.52880000     -73.58060000
H      -41.60930000     -34.65100000     -74.50890000
C      -44.33490000     -29.85300000     -72.64070000
H      -43.78320000     -29.85480000     -71.68680000
H      -44.02720000     -28.96640000     -73.12790000
S      -41.90170000     -35.27330000     -72.25880000
S      -46.17520000     -29.62210000     -72.10020000
C      -43.76360000     -35.41030000     -72.04710000
H      -44.29300000     -35.27150000     -73.04680000
H      -43.99290000     -36.47140000     -71.81000000
C      -46.28710000     -31.05430000     -70.80350000
H      -46.82460000     -30.58330000     -69.93580000
H      -45.23570000     -31.17180000     -70.45790000
C      -46.98700000     -32.30620000     -71.35100000
H      -47.85420000     -31.91850000     -71.79230000
H      -46.32730000     -32.76240000     -72.18800000
C      -44.16550000     -34.42590000     -70.82340000
H      -44.44420000     -33.53870000     -71.38650000
H      -43.19400000     -34.09480000     -70.33090000
C      -45.26630000     -34.91300000     -69.90130000
C      -45.00450000     -35.91050000     -69.00370000
C      -46.59550000     -34.33860000     -69.75020000
H      -44.15860000     -36.53490000     -68.94350000
C      -47.29990000     -34.97460000     -68.71370000
C      -47.39180000     -33.24500000     -70.26770000
C      -48.68220000     -33.16620000     -69.74690000
S      -46.35240000     -36.19690000     -67.98090000
S      -48.82740000     -34.19650000     -68.27810000
H      -49.25560000     -32.28080000     -70.01940000
