40
Properties=species:S:1:pos:R:3 #=T CELL(abcABC):=T 1.889726e+02=T 90.00000=T Traj:=T positionsangstrom=T Step:=T 0=T Bead:=T pbc="F F F"
C      -44.85770000     -31.16650000     -74.49270000
C      -44.05590000     -31.08570000     -73.33570000
C      -43.01960000     -32.09310000     -73.19840000
C      -42.91850000     -33.14570000     -74.05330000
C      -43.69230000     -33.10920000     -75.19420000
C      -44.60700000     -32.10840000     -75.40630000
H      -45.73190000     -30.47910000     -74.57870000
H      -42.39670000     -32.07160000     -72.37700000
H      -43.44300000     -33.76680000     -76.06780000
H      -45.09950000     -32.28110000     -76.37910000
C      -41.90200000     -34.28890000     -73.88410000
H      -41.01630000     -33.77010000     -73.63480000
H      -41.82020000     -34.90010000     -74.78150000
C      -44.22830000     -30.02640000     -72.33680000
H      -43.71180000     -30.17430000     -71.44470000
H      -43.90030000     -29.05990000     -72.73870000
S      -42.07870000     -35.37460000     -72.39240000
S      -46.03440000     -29.66700000     -71.78740000
C      -43.94520000     -35.39210000     -72.03060000
H      -44.53170000     -35.25990000     -72.97920000
H      -44.12640000     -36.41240000     -71.56270000
C      -46.33240000     -31.04820000     -70.58020000
H      -47.09920000     -30.58410000     -69.86990000
H      -45.46050000     -31.31980000     -69.95060000
C      -47.01310000     -32.21990000     -71.32000000
H      -47.85490000     -31.77390000     -71.96550000
H      -46.31100000     -32.64500000     -72.01250000
C      -44.28440000     -34.32480000     -70.97560000
H      -44.50010000     -33.45420000     -71.57460000
H      -43.32740000     -34.16100000     -70.49470000
C      -45.20540000     -34.77250000     -69.90100000
C      -44.86690000     -35.61320000     -68.89640000
C      -46.58600000     -34.27830000     -69.74560000
H      -43.91220000     -36.04120000     -68.75600000
C      -47.26650000     -34.97700000     -68.70750000
C      -47.45070000     -33.27410000     -70.33460000
C      -48.72660000     -33.29010000     -69.82210000
S      -46.26470000     -36.14540000     -67.94320000
S      -48.93140000     -34.39510000     -68.44820000
H      -49.55200000     -32.80860000     -70.24440000
