40
Properties=species:S:1:pos:R:3 #=T CELL(abcABC):=T 1.889726e+02=T 90.00000=T Traj:=T positionsangstrom=T Step:=T 0=T Bead:=T pbc="F F F"
C      -44.93550000     -31.12790000     -74.22950000
C      -44.06070000     -31.13710000     -73.13480000
C      -43.10560000     -32.13340000     -73.05510000
C      -42.91750000     -33.07100000     -74.06630000
C      -43.78400000     -33.08560000     -75.13310000
C      -44.82670000     -32.08990000     -75.20150000
H      -45.71770000     -30.34650000     -74.23540000
H      -42.48140000     -32.08900000     -72.04770000
H      -43.64160000     -33.77580000     -75.91080000
H      -45.46060000     -32.09280000     -75.99080000
C      -41.88010000     -34.21490000     -73.93180000
H      -40.93090000     -33.83430000     -73.62970000
H      -41.85500000     -34.95920000     -74.81260000
C      -44.01310000     -30.12180000     -71.97960000
H      -43.50720000     -30.64470000     -71.09480000
H      -43.37760000     -29.20520000     -72.23360000
S      -42.20760000     -35.25620000     -72.44790000
S      -45.67610000     -29.58550000     -71.49940000
C      -44.07440000     -35.14160000     -72.15800000
H      -44.53820000     -34.91490000     -73.09960000
H      -44.35940000     -36.15710000     -71.85880000
C      -46.21430000     -31.12270000     -70.58350000
H      -46.75230000     -30.68610000     -69.71500000
H      -45.36990000     -31.60650000     -70.14090000
C      -47.01300000     -32.15150000     -71.37320000
H      -47.88490000     -31.67910000     -71.83760000
H      -46.45970000     -32.48300000     -72.20810000
C      -44.30520000     -34.10510000     -70.97680000
H      -44.71980000     -33.14150000     -71.29740000
H      -43.30830000     -33.92410000     -70.46020000
C      -45.28120000     -34.69600000     -70.00480000
C      -44.85050000     -35.56930000     -69.04430000
C      -46.62870000     -34.30090000     -69.83450000
H      -43.89630000     -35.93270000     -68.89570000
C      -47.33560000     -35.07550000     -68.90930000
C      -47.52800000     -33.26550000     -70.41690000
C      -48.81840000     -33.32270000     -69.88370000
S      -46.21810000     -36.24240000     -68.07200000
S      -48.97300000     -34.70220000     -68.72220000
H      -49.67960000     -32.73340000     -70.08330000
