40
Properties=species:S:1:pos:R:3 #=T CELL(abcABC):=T 1.889726e+02=T 90.00000=T Traj:=T positionsangstrom=T Step:=T 0=T Bead:=T pbc="F F F"
C      -42.57840000     -35.08200000     -73.72270000
C      -43.52460000     -34.16410000     -74.25290000
C      -44.85260000     -34.55110000     -74.47070000
C      -45.30370000     -35.78990000     -73.99180000
C      -44.36490000     -36.75620000     -73.51230000
C      -43.09230000     -36.33900000     -73.24370000
H      -41.49260000     -34.83660000     -73.70290000
H      -45.41960000     -33.74870000     -74.85000000
H      -44.57930000     -37.77190000     -73.27880000
H      -42.44600000     -37.13020000     -72.92530000
C      -46.77190000     -36.12290000     -74.08090000
H      -47.08600000     -37.02670000     -73.52680000
H      -47.04830000     -36.36710000     -75.11890000
C      -43.04180000     -32.79540000     -74.67560000
H      -41.94130000     -32.71120000     -74.66390000
H      -43.41510000     -32.56190000     -75.68850000
S      -47.75970000     -34.72250000     -73.53590000
S      -43.75790000     -31.37500000     -73.70550000
C      -47.09200000     -34.52520000     -71.80910000
H      -47.47740000     -35.19860000     -71.12100000
H      -45.98130000     -34.65950000     -71.89230000
C      -43.78040000     -32.02360000     -71.98420000
H      -42.72940000     -32.22220000     -71.53530000
H      -44.49120000     -32.87490000     -72.06200000
C      -44.50930000     -31.00310000     -71.03670000
H      -43.91130000     -30.02880000     -70.97480000
H      -45.44420000     -30.67730000     -71.61050000
C      -47.37260000     -33.10220000     -71.27540000
H      -48.42810000     -32.92010000     -71.44550000
H      -46.85450000     -32.31740000     -71.81150000
C      -46.94020000     -33.03640000     -69.76510000
C      -47.70620000     -33.73440000     -68.80770000
C      -45.79920000     -32.33130000     -69.19120000
H      -48.49350000     -34.39270000     -69.16840000
C      -45.81160000     -32.51160000     -67.81200000
C      -44.67460000     -31.53120000     -69.61570000
C      -43.89970000     -31.00910000     -68.57210000
S      -47.02370000     -33.50410000     -67.11610000
S      -44.50550000     -31.63160000     -67.02600000
H      -43.03340000     -30.38780000     -68.73730000
