40
Properties=species:S:1:pos:R:3 #=T CELL(abcABC):=T 1.889726e+02=T 90.00000=T Traj:=T positionsangstrom=T Step:=T 0=T Bead:=T pbc="F F F"
C      -42.73270000     -35.01560000     -73.31930000
C      -43.44870000     -34.03300000     -74.03730000
C      -44.78270000     -34.29430000     -74.45920000
C      -45.37800000     -35.53380000     -74.04890000
C      -44.65530000     -36.49980000     -73.36240000
C      -43.34030000     -36.20190000     -72.93780000
H      -41.69940000     -34.84660000     -73.00560000
H      -45.38390000     -33.52970000     -74.98180000
H      -45.17920000     -37.46490000     -73.11820000
H      -42.69260000     -36.82030000     -72.38420000
C      -46.76000000     -35.82700000     -74.47150000
H      -47.08670000     -36.86820000     -74.21400000
H      -47.00720000     -35.65780000     -75.48750000
C      -42.74700000     -32.72990000     -74.36890000
H      -41.73820000     -32.73320000     -73.96860000
H      -42.66760000     -32.57700000     -75.45980000
S      -48.05890000     -34.65600000     -73.64570000
S      -43.62190000     -31.32420000     -73.63970000
C      -47.51540000     -34.66240000     -71.87360000
H      -48.25320000     -35.19220000     -71.26940000
H      -46.54220000     -35.15760000     -71.73420000
C      -43.51010000     -31.71330000     -71.82130000
H      -42.47750000     -31.45420000     -71.49850000
H      -43.81600000     -32.72210000     -71.77030000
C      -44.45510000     -30.87350000     -70.99170000
H      -44.03650000     -29.89090000     -70.84390000
H      -45.39980000     -30.74580000     -71.60660000
C      -47.22360000     -33.22220000     -71.39040000
H      -48.05470000     -32.55590000     -71.53980000
H      -46.42060000     -32.81960000     -72.06170000
C      -46.85050000     -33.15690000     -69.93450000
C      -47.48630000     -33.91260000     -68.97550000
C      -45.78520000     -32.40360000     -69.25720000
H      -48.35550000     -34.54850000     -69.14140000
C      -45.74850000     -32.70030000     -67.85030000
C      -44.70450000     -31.51430000     -69.63160000
C      -43.92110000     -31.20780000     -68.56210000
S      -47.05290000     -33.65160000     -67.24250000
S      -44.35590000     -31.99110000     -67.09810000
H      -42.94010000     -30.65030000     -68.58870000
