40
Properties=species:S:1:pos:R:3 #=T CELL(abcABC):=T 1.889726e+02=T 90.00000=T Traj:=T positionsangstrom=T Step:=T 0=T Bead:=T pbc="F F F"
C      -42.47420000     -34.99610000     -73.99680000
C      -43.52090000     -34.17660000     -74.39050000
C      -44.84270000     -34.63030000     -74.17380000
C      -45.04020000     -35.94380000     -73.69640000
C      -43.96690000     -36.78880000     -73.35290000
C      -42.65500000     -36.28170000     -73.47250000
H      -41.46810000     -34.59870000     -73.96520000
H      -45.75790000     -34.10800000     -74.35070000
H      -44.16270000     -37.72470000     -72.83820000
H      -41.87180000     -36.94130000     -73.21430000
C      -46.47110000     -36.46830000     -73.62870000
H      -46.73900000     -37.24110000     -72.90660000
H      -46.77370000     -36.83710000     -74.62290000
C      -43.21610000     -32.77850000     -74.86240000
H      -42.15450000     -32.53730000     -74.85020000
H      -43.58970000     -32.64150000     -75.91380000
S      -47.59840000     -35.07830000     -73.26380000
S      -44.22280000     -31.43020000     -74.02120000
C      -46.93430000     -34.44930000     -71.58270000
H      -46.91420000     -35.27070000     -70.92280000
H      -45.93750000     -34.09490000     -71.71850000
C      -43.82150000     -31.74060000     -72.23020000
H      -42.95830000     -31.14570000     -71.98960000
H      -43.77700000     -32.81790000     -72.08300000
C      -45.06850000     -31.19230000     -71.37170000
H      -45.11120000     -30.09200000     -71.40800000
H      -45.97490000     -31.59150000     -71.83150000
C      -47.70730000     -33.32670000     -70.88450000
H      -48.76110000     -33.58110000     -70.81600000
H      -47.60100000     -32.40680000     -71.48660000
C      -47.17340000     -33.11780000     -69.49100000
C      -47.70390000     -33.68130000     -68.32830000
C      -46.04300000     -32.30970000     -69.16070000
H      -48.46740000     -34.43130000     -68.18180000
C      -45.70100000     -32.29810000     -67.81730000
C      -45.01450000     -31.51850000     -69.90380000
C      -44.03540000     -30.91320000     -69.12610000
S      -46.80420000     -33.25920000     -66.85760000
S      -44.28840000     -31.37220000     -67.42140000
H      -43.21770000     -30.32060000     -69.43560000
