40
Properties=species:S:1:pos:R:3 #=T CELL(abcABC):=T 1.889726e+02=T 90.00000=T Traj:=T positionsangstrom=T Step:=T 0=T Bead:=T pbc="F F F"
C      -45.45830000     -36.49510000     -73.90000000
C      -46.14280000     -36.24040000     -72.71620000
C      -47.23360000     -35.32770000     -72.71250000
C      -47.58790000     -34.64120000     -73.87240000
C      -46.93370000     -34.96770000     -75.01590000
C      -45.80480000     -35.81870000     -75.03340000
H      -44.60890000     -37.23860000     -73.88410000
H      -47.81650000     -34.93140000     -71.83830000
H      -47.24980000     -34.48140000     -75.97740000
H      -45.14770000     -35.85450000     -75.84530000
C      -48.77870000     -33.74080000     -73.95900000
H      -49.66340000     -34.30790000     -73.98270000
H      -48.83250000     -33.03540000     -74.79540000
C      -45.85630000     -36.93700000     -71.45760000
H      -46.47990000     -36.48330000     -70.60810000
H      -46.16980000     -37.97490000     -71.60140000
S      -48.95550000     -32.49210000     -72.52960000
S      -44.12250000     -37.08260000     -70.91000000
C      -47.22730000     -31.87850000     -72.36820000
H      -46.77040000     -32.20000000     -73.27150000
H      -47.22480000     -30.75950000     -72.20410000
C      -43.64200000     -35.24360000     -70.83640000
H      -44.01990000     -34.88430000     -71.76900000
H      -42.54440000     -35.22120000     -70.82270000
C      -44.28530000     -34.57300000     -69.57830000
H      -45.32120000     -34.49730000     -69.78550000
H      -44.06940000     -35.10120000     -68.62700000
C      -46.43000000     -32.34030000     -71.16840000
H      -46.11210000     -33.34100000     -71.43910000
H      -47.08430000     -32.30560000     -70.29460000
C      -45.26570000     -31.45610000     -70.73530000
C      -45.31370000     -30.05460000     -71.00410000
C      -44.24900000     -31.88410000     -69.81210000
H      -46.21240000     -29.53280000     -71.10990000
C      -43.42080000     -30.82890000     -69.44510000
C      -43.74070000     -33.13560000     -69.27470000
C      -42.59610000     -33.02810000     -68.54440000
S      -44.01810000     -29.26350000     -70.01830000
S      -42.09640000     -31.32330000     -68.33240000
H      -42.09330000     -33.76880000     -67.91660000
