40
Properties=species:S:1:pos:R:3 #=T CELL(abcABC):=T 1.889726e+02=T 90.00000=T Traj:=T positionsangstrom=T Step:=T 0=T Bead:=T pbc="F F F"
C      -42.36180000     -35.33450000     -73.84000000
C      -43.18040000     -34.26080000     -74.31710000
C      -44.54460000     -34.44620000     -74.44470000
C      -45.12430000     -35.73410000     -74.16000000
C      -44.30370000     -36.77840000     -73.74060000
C      -42.88080000     -36.62280000     -73.66150000
H      -41.28100000     -35.14380000     -73.69630000
H      -45.16980000     -33.58600000     -74.78890000
H      -44.72130000     -37.77340000     -73.49680000
H      -42.24130000     -37.49390000     -73.36290000
C      -46.64620000     -36.00990000     -74.23070000
H      -46.62050000     -37.01650000     -73.77930000
H      -47.00740000     -35.93330000     -75.31290000
C      -42.59600000     -32.84680000     -74.35500000
H      -41.85650000     -32.76610000     -73.49130000
H      -42.08180000     -32.55570000     -75.30100000
S      -47.74450000     -34.81020000     -73.36640000
S      -43.84120000     -31.54920000     -73.83670000
C      -47.05970000     -34.66160000     -71.59560000
H      -47.27320000     -35.55590000     -70.96940000
H      -46.01550000     -34.62630000     -71.71700000
C      -44.11320000     -32.10050000     -72.09920000
H      -43.17460000     -32.39190000     -71.58030000
H      -44.67020000     -33.13740000     -72.03170000
C      -44.88380000     -31.10300000     -71.18540000
H      -44.42980000     -30.15450000     -71.33560000
H      -45.94400000     -31.15120000     -71.52020000
C      -47.64770000     -33.39630000     -70.93010000
H      -48.72920000     -33.59200000     -70.92210000
H      -47.56320000     -32.51870000     -71.67410000
C      -47.13000000     -33.04670000     -69.57130000
C      -47.77240000     -33.61470000     -68.48770000
C      -45.98340000     -32.19500000     -69.09080000
H      -48.71910000     -34.10170000     -68.54330000
C      -45.79180000     -32.25810000     -67.75260000
C      -44.95650000     -31.41390000     -69.72120000
C      -44.04170000     -30.92060000     -68.82360000
S      -47.05270000     -33.22710000     -66.96640000
S      -44.43530000     -31.45540000     -67.19040000
H      -43.08570000     -30.42600000     -69.11150000
