40
Properties=species:S:1:pos:R:3 #=T CELL(abcABC):=T 1.889726e+02=T 90.00000=T Traj:=T positionsangstrom=T Step:=T 0=T Bead:=T pbc="F F F"
C      -44.83800000     -31.40430000     -74.07440000
C      -43.69590000     -31.48340000     -73.20440000
C      -43.02830000     -32.68290000     -73.09030000
C      -43.33200000     -33.79840000     -73.90190000
C      -44.43420000     -33.76530000     -74.71320000
C      -45.22550000     -32.59180000     -74.73970000
H      -45.42990000     -30.53840000     -74.15820000
H      -42.22960000     -32.62950000     -72.41930000
H      -44.64110000     -34.62120000     -75.32690000
H      -46.12320000     -32.44450000     -75.42680000
C      -42.48220000     -34.99430000     -73.84580000
H      -41.39720000     -34.81950000     -74.02340000
H      -42.72880000     -35.78740000     -74.58970000
C      -43.27400000     -30.28350000     -72.42070000
H      -42.29660000     -29.78210000     -72.67430000
H      -44.03430000     -29.51850000     -72.46110000
S      -42.35210000     -35.72010000     -72.12720000
S      -42.88160000     -30.80170000     -70.63720000
C      -44.07040000     -35.98400000     -71.50320000
H      -44.62560000     -36.59840000     -72.28660000
H      -43.96230000     -36.70040000     -70.65860000
C      -44.42310000     -31.47710000     -69.77780000
H      -44.48450000     -30.80950000     -68.86720000
H      -44.06650000     -32.39950000     -69.33740000
C      -45.70180000     -31.42970000     -70.55040000
H      -46.07450000     -30.42620000     -70.50170000
H      -45.53460000     -31.71580000     -71.64230000
C      -44.83250000     -34.67910000     -71.17770000
H      -45.12370000     -34.19950000     -72.13250000
H      -44.04970000     -34.09360000     -70.59580000
C      -46.16470000     -34.85380000     -70.42700000
C      -46.87210000     -36.02270000     -70.34570000
C      -46.93630000     -33.74400000     -69.87000000
H      -46.58410000     -37.01020000     -70.57820000
C      -48.21250000     -34.15750000     -69.35140000
C      -46.80600000     -32.28410000     -69.97350000
C      -47.94050000     -31.66990000     -69.46680000
S      -48.44370000     -35.80630000     -69.53100000
S      -49.21440000     -32.72670000     -69.08030000
H      -48.06190000     -30.62970000     -69.36770000
