40
Properties=species:S:1:pos:R:3 #=T CELL(abcABC):=T 1.889726e+02=T 90.00000=T Traj:=T positionsangstrom=T Step:=T 0=T Bead:=T pbc="F F F"
C      -42.48640000     -34.99760000     -73.86720000
C      -43.46440000     -34.12030000     -74.28160000
C      -44.83480000     -34.53770000     -74.33830000
C      -45.17800000     -35.77660000     -73.78330000
C      -44.16010000     -36.61970000     -73.17600000
C      -42.80410000     -36.25720000     -73.26880000
H      -41.43050000     -34.62730000     -73.96230000
H      -45.54470000     -33.90720000     -74.85790000
H      -44.50450000     -37.60720000     -72.82580000
H      -41.96140000     -36.96550000     -72.98960000
C      -46.57190000     -36.26850000     -73.86640000
H      -46.63330000     -37.17280000     -73.35140000
H      -46.97680000     -36.47110000     -74.86170000
C      -43.06850000     -32.77150000     -74.79860000
H      -41.99910000     -32.51970000     -74.55680000
H      -43.09230000     -32.65400000     -75.85870000
S      -47.83020000     -35.15640000     -73.03070000
S      -44.01270000     -31.40410000     -74.04170000
C      -47.16970000     -34.67160000     -71.33960000
H      -47.35660000     -35.34350000     -70.53880000
H      -46.12380000     -34.59010000     -71.36730000
C      -44.33070000     -31.90990000     -72.29790000
H      -43.25560000     -31.95490000     -71.88920000
H      -44.77740000     -32.93320000     -72.32300000
C      -45.12870000     -30.96690000     -71.39000000
H      -44.81240000     -29.96210000     -71.58170000
H      -46.20280000     -31.12680000     -71.63450000
C      -47.79140000     -33.34400000     -70.82570000
H      -48.88390000     -33.46060000     -70.67520000
H      -47.64190000     -32.54600000     -71.53850000
C      -47.14740000     -33.02860000     -69.50730000
C      -47.67800000     -33.64710000     -68.35360000
C      -45.92790000     -32.25420000     -69.27620000
H      -48.51150000     -34.35780000     -68.39040000
C      -45.56700000     -32.35240000     -67.92260000
C      -45.00820000     -31.32610000     -69.93900000
C      -43.94340000     -30.91750000     -69.21160000
S      -46.63210000     -33.32320000     -66.92560000
S      -44.06370000     -31.56540000     -67.56550000
H      -43.08710000     -30.40840000     -69.66600000
