40
Properties=species:S:1:pos:R:3 #=T CELL(abcABC):=T 1.889726e+02=T 90.00000=T Traj:=T positionsangstrom=T Step:=T 0=T Bead:=T pbc="F F F"
C      -44.83220000     -31.41430000     -73.96570000
C      -43.79870000     -31.54380000     -73.05220000
C      -43.09630000     -32.78300000     -72.90250000
C      -43.32440000     -33.80930000     -73.84590000
C      -44.30140000     -33.56610000     -74.82410000
C      -45.04880000     -32.41800000     -74.87630000
H      -45.44190000     -30.48450000     -73.94960000
H      -42.32180000     -33.01050000     -72.12350000
H      -44.50210000     -34.26810000     -75.58620000
H      -45.76530000     -32.38790000     -75.57700000
C      -42.52800000     -35.05040000     -73.87540000
H      -41.52250000     -35.00540000     -74.31970000
H      -43.01940000     -35.78610000     -74.54530000
C      -43.34890000     -30.40350000     -72.17180000
H      -42.44340000     -30.11220000     -72.55970000
H      -43.92590000     -29.49490000     -72.19660000
S      -42.33020000     -35.62820000     -72.08340000
S      -42.98320000     -30.74630000     -70.36730000
C      -44.06010000     -35.90670000     -71.57550000
H      -44.61120000     -36.14220000     -72.51970000
H      -44.00110000     -36.78620000     -70.87330000
C      -44.58210000     -31.39180000     -69.70840000
H      -44.83610000     -30.82200000     -68.77290000
H      -44.41710000     -32.44490000     -69.43920000
C      -45.74750000     -31.45910000     -70.67820000
H      -46.17160000     -30.45670000     -71.09440000
H      -45.45420000     -31.97790000     -71.58620000
C      -44.69000000     -34.62570000     -71.00190000
H      -44.71620000     -33.80150000     -71.77330000
H      -44.04340000     -34.18580000     -70.23960000
C      -46.09790000     -34.82070000     -70.58170000
C      -46.72280000     -36.02930000     -70.44440000
C      -46.96170000     -33.71900000     -70.13050000
H      -46.36510000     -37.00530000     -70.81390000
C      -48.16830000     -34.15990000     -69.58340000
C      -46.86470000     -32.28390000     -70.07970000
C      -47.97870000     -31.72830000     -69.51130000
S      -48.38220000     -35.84110000     -69.80110000
S      -49.23160000     -32.90920000     -68.97560000
H      -48.16220000     -30.63120000     -69.32520000
