40
Properties=species:S:1:pos:R:3 #=T CELL(abcABC):=T 1.889726e+02=T 90.00000=T Traj:=T positionsangstrom=T Step:=T 0=T Bead:=T pbc="F F F"
C      -44.70810000     -31.43350000     -74.18810000
C      -43.54330000     -31.51670000     -73.35840000
C      -42.87860000     -32.76140000     -73.27270000
C      -43.36390000     -33.87530000     -73.93180000
C      -44.45910000     -33.74900000     -74.78890000
C      -45.08630000     -32.50810000     -75.00140000
H      -45.04730000     -30.37830000     -74.39080000
H      -41.88540000     -32.70020000     -72.82220000
H      -44.79880000     -34.61220000     -75.40130000
H      -45.97180000     -32.31360000     -75.67740000
C      -42.64080000     -35.18510000     -73.73320000
H      -41.69930000     -35.00870000     -74.20030000
H      -43.19000000     -35.96760000     -74.34870000
C      -43.18960000     -30.28030000     -72.61520000
H      -42.16050000     -29.95030000     -72.97900000
H      -43.92070000     -29.45150000     -72.78630000
S      -42.44580000     -35.67340000     -72.03300000
S      -43.00830000     -30.73980000     -70.77380000
C      -44.11190000     -36.06310000     -71.36160000
H      -44.63990000     -36.66230000     -72.08990000
H      -43.89590000     -36.66370000     -70.46980000
C      -44.51180000     -31.32420000     -69.91710000
H      -44.76960000     -30.55420000     -69.23210000
H      -44.08680000     -32.24670000     -69.41770000
C      -45.72030000     -31.58830000     -70.80420000
H      -46.14310000     -30.60730000     -71.06710000
H      -45.42340000     -32.07070000     -71.67690000
C      -44.81540000     -34.76670000     -71.04960000
H      -44.88150000     -34.13540000     -71.98890000
H      -44.20530000     -34.15880000     -70.35980000
C      -46.20640000     -34.87560000     -70.44330000
C      -46.92510000     -36.03460000     -70.21360000
C      -47.05980000     -33.72890000     -70.05400000
H      -46.54230000     -37.02520000     -70.51460000
C      -48.18670000     -34.07380000     -69.37370000
C      -46.82720000     -32.30970000     -70.05090000
C      -47.77820000     -31.59970000     -69.34400000
S      -48.52610000     -35.81120000     -69.40530000
S      -49.01950000     -32.68300000     -68.70990000
H      -47.82390000     -30.52500000     -69.32870000
