40
Properties=species:S:1:pos:R:3 #=T CELL(abcABC):=T 1.889726e+02=T 90.00000=T Traj:=T positionsangstrom=T Step:=T 0=T Bead:=T pbc="F F F"
C      -42.64450000     -35.53280000     -73.36330000
C      -43.40120000     -34.67660000     -74.13020000
C      -44.73890000     -34.96950000     -74.26140000
C      -45.33920000     -36.13060000     -73.74370000
C      -44.52480000     -37.03170000     -73.03250000
C      -43.15840000     -36.77310000     -72.94410000
H      -41.56580000     -35.41390000     -73.37010000
H      -45.31250000     -34.13170000     -74.69580000
H      -44.98420000     -37.91480000     -72.60760000
H      -42.52180000     -37.50400000     -72.41570000
C      -46.86790000     -36.22500000     -73.88310000
H      -47.10340000     -37.22420000     -73.34250000
H      -47.20340000     -36.24960000     -74.95060000
C      -42.81330000     -33.42060000     -74.53830000
H      -41.80540000     -33.24500000     -74.10180000
H      -42.64570000     -33.39440000     -75.65210000
S      -47.83700000     -34.91680000     -73.20070000
S      -43.76230000     -31.81370000     -74.05480000
C      -47.01420000     -34.56670000     -71.65080000
H      -47.08290000     -35.44400000     -70.97190000
H      -45.94700000     -34.38940000     -71.69920000
C      -43.85090000     -31.99820000     -72.26100000
H      -42.88840000     -31.72700000     -71.84900000
H      -43.94580000     -33.04240000     -71.99800000
C      -44.95000000     -31.18460000     -71.66730000
H      -44.92240000     -30.11630000     -71.96200000
H      -45.90930000     -31.52980000     -72.13130000
C      -47.60720000     -33.35970000     -70.93320000
H      -48.62480000     -33.60140000     -70.84740000
H      -47.63450000     -32.47760000     -71.59360000
C      -47.00790000     -33.06350000     -69.50870000
C      -47.53320000     -33.55940000     -68.36230000
C      -45.74240000     -32.24680000     -69.27760000
H      -48.45960000     -34.10860000     -68.16880000
C      -45.52530000     -32.06260000     -67.94870000
C      -45.04790000     -31.25640000     -70.11690000
C      -44.31700000     -30.35860000     -69.35590000
S      -46.63110000     -32.93140000     -66.91700000
S      -44.39140000     -30.71730000     -67.58830000
H      -43.69690000     -29.56520000     -69.77430000
