40
Properties=species:S:1:pos:R:3 #=T CELL(abcABC):=T 1.889726e+02=T 90.00000=T Traj:=T positionsangstrom=T Step:=T 0=T Bead:=T pbc="F F F"
C      -47.42730000     -37.34060000     -72.29750000
C      -46.93360000     -36.48520000     -71.33500000
C      -45.59440000     -36.11280000     -71.30590000
C      -44.72500000     -36.59540000     -72.30430000
C      -45.20770000     -37.42990000     -73.31000000
C      -46.55570000     -37.80090000     -73.29190000
H      -48.48930000     -37.69350000     -72.23470000
H      -45.22910000     -35.48250000     -70.50630000
H      -44.60820000     -37.92080000     -74.09010000
H      -46.88110000     -38.41350000     -74.06640000
C      -43.25660000     -36.41080000     -72.19310000
H      -42.82810000     -37.37640000     -72.55030000
H      -43.05560000     -36.13900000     -71.10560000
C      -47.96990000     -35.97440000     -70.29370000
H      -48.32820000     -34.98810000     -70.73270000
H      -48.70680000     -36.71410000     -70.22330000
S      -42.50580000     -34.98190000     -73.22320000
S      -47.16450000     -35.50290000     -68.68380000
C      -43.51170000     -33.48240000     -72.81030000
H      -43.45510000     -32.91600000     -73.72250000
H      -44.53360000     -33.82760000     -72.66470000
C      -47.05490000     -33.65010000     -68.81840000
H      -46.52080000     -33.32460000     -67.93830000
H      -47.99670000     -33.17350000     -68.85080000
C      -46.23520000     -33.20480000     -70.09400000
H      -45.27720000     -33.67440000     -70.16910000
H      -46.69790000     -33.66330000     -70.94940000
C      -42.94730000     -32.74680000     -71.59510000
H      -41.86050000     -32.47030000     -71.56200000
H      -42.97910000     -33.35950000     -70.62890000
C      -43.64460000     -31.40070000     -71.41580000
C      -43.01490000     -30.32700000     -71.98670000
C      -44.96530000     -31.03110000     -70.86860000
H      -42.17280000     -30.42190000     -72.62750000
C      -45.28440000     -29.70500000     -71.22700000
C      -46.09680000     -31.71850000     -70.31460000
C      -47.13620000     -30.85640000     -69.92720000
S      -43.95460000     -28.91170000     -71.99510000
S      -46.77700000     -29.17350000     -70.52420000
H      -47.98910000     -31.12510000     -69.31790000
