40
Properties=species:S:1:pos:R:3 #=T CELL(abcABC):=T 1.889726e+02=T 90.00000=T Traj:=T positionsangstrom=T Step:=T 0=T Bead:=T pbc="F F F"
C      -47.48560000     -36.79020000     -72.65280000
C      -46.98920000     -36.33860000     -71.37590000
C      -45.62250000     -36.35700000     -71.17090000
C      -44.70180000     -36.71630000     -72.22390000
C      -45.22560000     -37.01470000     -73.47690000
C      -46.61160000     -37.07500000     -73.65300000
H      -48.53200000     -36.88840000     -72.88600000
H      -45.12740000     -36.20890000     -70.16540000
H      -44.48980000     -37.28550000     -74.23880000
H      -47.04000000     -37.58000000     -74.56440000
C      -43.20870000     -36.65850000     -72.02910000
H      -42.67990000     -37.51950000     -72.47920000
H      -42.99380000     -36.43570000     -71.00680000
C      -47.99180000     -36.02310000     -70.31170000
H      -48.71470000     -35.30220000     -70.61080000
H      -48.56630000     -36.92030000     -70.02470000
S      -42.57090000     -35.27150000     -73.20120000
S      -47.14060000     -35.45470000     -68.69480000
C      -43.58310000     -33.71210000     -72.91460000
H      -43.45460000     -33.24370000     -73.83200000
H      -44.60520000     -34.00210000     -72.85510000
C      -47.17620000     -33.63920000     -68.95560000
H      -47.04060000     -33.22300000     -68.02010000
H      -48.08270000     -33.43400000     -69.42040000
C      -45.95500000     -33.19790000     -69.73180000
H      -45.10000000     -33.27560000     -69.04320000
H      -45.81780000     -33.80450000     -70.62240000
C      -43.04420000     -32.88650000     -71.77060000
H      -42.01630000     -32.63830000     -72.03570000
H      -43.16140000     -33.37910000     -70.79920000
C      -43.66580000     -31.45450000     -71.54240000
C      -43.04390000     -30.35800000     -72.03640000
C      -44.99230000     -31.11110000     -70.94010000
H      -42.05200000     -30.30590000     -72.47070000
C      -45.19090000     -29.71960000     -71.04020000
C      -46.00350000     -31.70290000     -70.09820000
C      -47.01910000     -30.79470000     -69.76000000
S      -43.97650000     -28.88680000     -71.91930000
S      -46.73800000     -29.23590000     -70.48640000
H      -47.97110000     -30.97530000     -69.31850000
