40
Properties=species:S:1:pos:R:3 #=T CELL(abcABC):=T 1.889726e+02=T 90.00000=T Traj:=T positionsangstrom=T Step:=T 0=T Bead:=T pbc="F F F"
C      -47.52330000     -36.02610000     -72.23580000
C      -46.81260000     -36.18640000     -71.04660000
C      -45.40280000     -36.33410000     -71.08500000
C      -44.72160000     -36.23320000     -72.29360000
C      -45.49960000     -36.10800000     -73.47310000
C      -46.87920000     -36.03220000     -73.47300000
H      -48.69560000     -35.92870000     -72.21070000
H      -44.84680000     -36.32900000     -70.15460000
H      -45.05490000     -35.92250000     -74.43910000
H      -47.54380000     -35.91480000     -74.35880000
C      -43.28050000     -36.51620000     -72.32320000
H      -43.15630000     -37.43120000     -72.89930000
H      -42.79070000     -36.72420000     -71.38060000
C      -47.64570000     -36.28790000     -69.76810000
H      -48.66360000     -35.96320000     -70.10970000
H      -47.65930000     -37.39850000     -69.45320000
S      -42.32640000     -35.25150000     -73.36820000
S      -47.11390000     -35.47880000     -68.26600000
C      -42.35730000     -33.73400000     -72.29350000
H      -41.78130000     -33.91900000     -71.41580000
H      -41.82690000     -32.91590000     -72.86290000
C      -47.15960000     -33.61600000     -68.65100000
H      -46.93780000     -33.08960000     -67.77060000
H      -48.17490000     -33.31290000     -68.92300000
C      -46.04330000     -33.21920000     -69.64240000
H      -45.10290000     -33.43910000     -69.02440000
H      -45.93800000     -33.85250000     -70.50650000
C      -43.71320000     -33.29010000     -71.88120000
H      -43.93150000     -33.72170000     -70.89090000
H      -44.46310000     -33.80260000     -72.45090000
C      -44.04250000     -31.81760000     -71.88490000
C      -43.39780000     -30.86930000     -72.62220000
C      -45.16390000     -31.31830000     -71.16040000
H      -42.46070000     -30.95430000     -73.19270000
C      -45.44400000     -30.00510000     -71.51520000
C      -46.05860000     -31.84810000     -70.15120000
C      -46.99040000     -30.91330000     -69.72280000
S      -44.16440000     -29.31660000     -72.47240000
S      -46.60740000     -29.27430000     -70.47330000
H      -47.77390000     -31.01750000     -68.99010000
