40
Properties=species:S:1:pos:R:3 #=T CELL(abcABC):=T 1.889726e+02=T 90.00000=T Traj:=T positionsangstrom=T Step:=T 0=T Bead:=T pbc="F F F"
C      -43.91810000     -34.01060000     -75.45920000
C      -43.88750000     -34.59300000     -74.16240000
C      -45.04360000     -35.23620000     -73.62610000
C      -46.34020000     -35.04350000     -74.34570000
C      -46.29540000     -34.31170000     -75.51090000
C      -45.10740000     -33.85660000     -76.14590000
H      -42.98670000     -33.62080000     -75.90740000
H      -45.07630000     -35.73820000     -72.62660000
H      -47.24860000     -34.07220000     -75.99530000
H      -45.12510000     -33.35720000     -77.13430000
C      -47.65320000     -35.43040000     -73.81440000
H      -48.32060000     -35.99200000     -74.53130000
H      -48.30160000     -34.59380000     -73.58630000
C      -42.57680000     -34.54700000     -73.40330000
H      -42.66190000     -34.95420000     -72.41250000
H      -41.75290000     -35.10320000     -73.84480000
S      -47.57440000     -36.41430000     -72.18970000
S      -42.10610000     -32.78860000     -73.23870000
C      -47.70270000     -35.18280000     -70.84320000
H      -48.57360000     -34.50000000     -71.00960000
H      -47.95220000     -35.82350000     -69.96220000
C      -43.37570000     -32.32590000     -71.89350000
H      -44.38010000     -32.47260000     -72.23340000
H      -43.11470000     -31.28890000     -71.79960000
C      -43.17360000     -32.96480000     -70.51760000
H      -43.36590000     -34.08590000     -70.51610000
H      -42.08820000     -32.96500000     -70.25520000
C      -46.43610000     -34.39680000     -70.57660000
H      -46.07470000     -34.01220000     -71.54100000
H      -45.68330000     -35.09370000     -70.12070000
C      -46.56330000     -33.30420000     -69.57490000
C      -47.70360000     -32.94520000     -68.91810000
C      -45.42040000     -32.50880000     -69.12240000
H      -48.69250000     -33.41270000     -69.05040000
C      -45.81780000     -31.63310000     -68.08910000
C      -44.01830000     -32.25390000     -69.40390000
C      -43.43440000     -31.23220000     -68.70570000
S      -47.46050000     -31.64860000     -67.64950000
S      -44.53710000     -30.48990000     -67.53010000
H      -42.46990000     -30.83450000     -68.93290000
