40
Properties=species:S:1:pos:R:3 #=T CELL(abcABC):=T 1.889726e+02=T 90.00000=T Traj:=T positionsangstrom=T Step:=T 0=T Bead:=T pbc="F F F"
C      -44.73450000     -32.47200000     -74.99900000
C      -44.08200000     -33.51090000     -74.33630000
C      -44.75360000     -34.70690000     -73.92940000
C      -46.13780000     -34.89410000     -74.29220000
C      -46.74440000     -33.81520000     -74.91250000
C      -46.08930000     -32.65710000     -75.22720000
H      -44.26840000     -31.62710000     -75.51660000
H      -44.16030000     -35.49910000     -73.39480000
H      -47.78970000     -34.01550000     -75.11690000
H      -46.58250000     -31.89990000     -75.90650000
C      -46.68100000     -36.24390000     -74.04890000
H      -46.16110000     -36.90790000     -74.76530000
H      -47.79100000     -36.25630000     -74.26410000
C      -42.60680000     -33.41170000     -74.09120000
H      -42.27160000     -34.35230000     -73.73100000
H      -42.14470000     -33.19370000     -75.06040000
S      -46.43100000     -36.92050000     -72.36240000
S      -42.11280000     -32.02610000     -73.04740000
C      -47.08680000     -35.64720000     -71.21480000
H      -47.79010000     -34.98420000     -71.71380000
H      -47.54130000     -36.15040000     -70.30830000
C      -43.46930000     -32.05980000     -71.79570000
H      -44.45800000     -32.31600000     -72.24010000
H      -43.63160000     -30.99850000     -71.54980000
C      -43.19580000     -32.72810000     -70.43160000
H      -42.96080000     -33.83450000     -70.49600000
H      -42.13910000     -32.32400000     -70.11570000
C      -45.95720000     -34.85520000     -70.70360000
H      -45.47850000     -34.17850000     -71.50180000
H      -45.05640000     -35.30180000     -70.27380000
C      -46.30480000     -33.86210000     -69.69010000
C      -47.52890000     -33.86270000     -69.09620000
C      -45.47540000     -32.75770000     -69.15330000
H      -48.31300000     -34.57180000     -69.31130000
C      -46.17630000     -32.13940000     -68.07990000
C      -44.18660000     -32.19000000     -69.39800000
C      -43.91270000     -31.14630000     -68.57720000
S      -47.74300000     -32.74390000     -67.74900000
S      -45.21710000     -30.80060000     -67.42630000
H      -43.06750000     -30.49530000     -68.54440000
