40
Properties=species:S:1:pos:R:3 #=T CELL(abcABC):=T 1.889726e+02=T 90.00000=T Traj:=T positionsangstrom=T Step:=T 0=T Bead:=T pbc="F F F"
C      -47.30100000     -36.96820000     -71.61030000
C      -46.56880000     -36.63040000     -70.44670000
C      -45.20960000     -36.52350000     -70.61260000
C      -44.57570000     -36.56810000     -71.91900000
C      -45.42910000     -36.72400000     -73.05590000
C      -46.75360000     -37.07530000     -72.87390000
H      -48.31820000     -37.06920000     -71.43610000
H      -44.60660000     -36.74410000     -69.74500000
H      -44.90380000     -36.93330000     -73.97600000
H      -47.30880000     -37.54960000     -73.71170000
C      -43.09670000     -36.51060000     -72.10960000
H      -42.70760000     -37.45940000     -72.63440000
H      -42.53280000     -36.55730000     -71.14080000
C      -47.20700000     -36.54260000     -69.11810000
H      -48.31860000     -36.55500000     -69.12870000
H      -46.97280000     -37.42690000     -68.53310000
S      -42.54520000     -35.20450000     -73.22520000
S      -46.49640000     -35.16590000     -68.22020000
C      -43.06000000     -33.61650000     -72.35900000
H      -43.14670000     -33.90410000     -71.33040000
H      -42.19830000     -32.89390000     -72.28860000
C      -47.11650000     -33.65510000     -68.99040000
H      -47.11360000     -32.93050000     -68.16150000
H      -48.08000000     -33.78600000     -69.48420000
C      -46.20500000     -33.13140000     -70.18640000
H      -45.18300000     -33.34040000     -69.87180000
H      -46.41840000     -33.89810000     -70.95040000
C      -44.39220000     -33.08710000     -72.89720000
H      -44.99770000     -33.83890000     -72.46520000
H      -44.62600000     -33.17330000     -73.97450000
C      -44.58200000     -31.60970000     -72.60380000
C      -43.95730000     -30.65630000     -73.42130000
C      -45.39740000     -31.04830000     -71.57030000
H      -43.12210000     -30.77010000     -74.12510000
C      -45.34100000     -29.65570000     -71.50730000
C      -46.25890000     -31.63040000     -70.58220000
C      -46.86330000     -30.72880000     -69.76010000
S      -44.25880000     -29.00010000     -72.69300000
S      -46.42880000     -29.06950000     -70.26170000
H      -47.55580000     -30.92750000     -69.01260000
