40
Properties=species:S:1:pos:R:3 #=T CELL(abcABC):=T 1.889726e+02=T 90.00000=T Traj:=T positionsangstrom=T Step:=T 0=T Bead:=T pbc="F F F"
C      -42.70010000     -33.05850000     -74.11150000
C      -43.55030000     -33.66350000     -73.20510000
C      -43.72690000     -33.12850000     -71.93000000
C      -43.14370000     -31.88710000     -71.55630000
C      -42.10750000     -31.35490000     -72.37120000
C      -41.98500000     -31.93140000     -73.66910000
H      -42.62440000     -33.43630000     -75.11450000
H      -44.52750000     -33.61290000     -71.40200000
H      -41.54580000     -30.43110000     -72.25510000
H      -41.33300000     -31.38040000     -74.26210000
C      -43.50730000     -31.19500000     -70.24990000
H      -42.63570000     -30.73940000     -69.75110000
H      -43.99600000     -31.90460000     -69.59200000
C      -44.36880000     -34.97130000     -73.54090000
H      -43.69660000     -35.59220000     -74.24550000
H      -44.57100000     -35.44490000     -72.57930000
S      -44.81340000     -29.83850000     -70.43340000
S      -45.80080000     -34.68320000     -74.62540000
C      -46.11230000     -30.73600000     -71.39800000
H      -46.70570000     -29.97030000     -71.89130000
H      -45.72270000     -31.36260000     -72.13510000
C      -46.86640000     -33.53010000     -73.66760000
H      -47.51690000     -32.99100000     -74.30600000
H      -46.24230000     -32.78810000     -73.14660000
C      -47.87440000     -34.12220000     -72.62420000
H      -48.67190000     -33.39280000     -72.34310000
H      -48.42800000     -34.89110000     -73.21930000
C      -47.04970000     -31.59060000     -70.44500000
H      -47.99390000     -31.79410000     -70.92950000
H      -47.44940000     -30.92230000     -69.63390000
C      -46.62030000     -32.78350000     -69.74500000
C      -46.12260000     -32.68190000     -68.48680000
C      -46.71290000     -34.13210000     -70.18500000
H      -46.00460000     -31.79690000     -67.87200000
C      -46.11510000     -35.03820000     -69.22030000
C      -47.14500000     -34.80250000     -71.35900000
C      -46.95540000     -36.20580000     -71.27340000
S      -45.57560000     -34.21880000     -67.79800000
S      -46.07190000     -36.66550000     -69.80240000
H      -47.13810000     -36.97720000     -71.99590000
