40
Properties=species:S:1:pos:R:3 #=T CELL(abcABC):=T 1.889726e+02=T 90.00000=T Traj:=T positionsangstrom=T Step:=T 0=T Bead:=T pbc="F F F"
C      -45.24110000     -32.28060000     -74.31790000
C      -44.41890000     -33.37520000     -74.12990000
C      -44.95040000     -34.66440000     -74.08710000
C      -46.30230000     -34.87360000     -74.27670000
C      -47.15640000     -33.80340000     -74.69120000
C      -46.63410000     -32.45690000     -74.63880000
H      -44.82400000     -31.32640000     -74.09550000
H      -44.31500000     -35.55890000     -73.90470000
H      -48.26410000     -33.88910000     -74.83890000
H      -47.32660000     -31.68780000     -74.81270000
C      -46.94390000     -36.28740000     -73.97080000
H      -46.86500000     -36.97980000     -74.76960000
H      -48.04050000     -36.16700000     -73.66150000
C      -42.85740000     -33.27180000     -73.90650000
H      -42.49410000     -34.17760000     -73.34180000
H      -42.42680000     -33.25930000     -74.95000000
S      -46.11870000     -37.11180000     -72.51820000
S      -42.26050000     -31.60720000     -73.25370000
C      -46.73700000     -35.99780000     -71.20470000
H      -47.80500000     -35.78370000     -71.40890000
H      -46.65300000     -36.33700000     -70.17870000
C      -43.30640000     -31.40860000     -71.70890000
H      -44.34110000     -31.21700000     -71.97800000
H      -43.00950000     -30.55020000     -71.17530000
C      -43.25990000     -32.58570000     -70.75170000
H      -43.45940000     -33.59480000     -71.18890000
H      -42.21120000     -32.71650000     -70.32470000
C      -45.90860000     -34.66320000     -71.07510000
H      -45.96590000     -34.01040000     -71.97950000
H      -44.87320000     -34.93160000     -71.03550000
C      -46.27460000     -33.87300000     -69.82860000
C      -47.44820000     -33.91810000     -69.18680000
C      -45.38600000     -32.91050000     -69.26470000
H      -48.24540000     -34.54890000     -69.54030000
C      -45.96020000     -32.32150000     -68.09730000
C      -44.06510000     -32.29890000     -69.50800000
C      -43.68410000     -31.43800000     -68.56470000
S      -47.65060000     -32.82020000     -67.86150000
S      -44.87630000     -31.18810000     -67.30410000
H      -42.68560000     -30.99090000     -68.55950000
