40
Properties=species:S:1:pos:R:3 #=T CELL(abcABC):=T 1.889726e+02=T 90.00000=T Traj:=T positionsangstrom=T Step:=T 0=T Bead:=T pbc="F F F"
C      -45.93900000     -32.08360000     -75.07850000
C      -44.78850000     -32.87890000     -74.79200000
C      -44.94000000     -34.22670000     -74.57010000
C      -46.19900000     -34.88670000     -74.63430000
C      -47.30710000     -34.11590000     -74.92830000
C      -47.15870000     -32.76630000     -75.14080000
H      -45.79920000     -31.01850000     -75.25590000
H      -44.01590000     -34.83930000     -74.49690000
H      -48.28900000     -34.59000000     -75.25750000
H      -48.03510000     -32.23970000     -75.36690000
C      -46.39580000     -36.37240000     -74.25090000
H      -45.69180000     -36.96670000     -74.79110000
H      -47.41910000     -36.59830000     -74.50250000
C      -43.39500000     -32.22390000     -74.73830000
H      -42.64720000     -33.02450000     -74.65450000
H      -43.29090000     -31.45490000     -75.55170000
S      -46.04740000     -37.04270000     -72.53740000
S      -42.95510000     -31.11860000     -73.24440000
C      -46.73730000     -35.62100000     -71.46460000
H      -47.50180000     -35.17130000     -72.10160000
H      -47.25680000     -36.17290000     -70.67830000
C      -44.03540000     -31.54940000     -71.87280000
H      -44.90940000     -31.98030000     -72.38660000
H      -44.38880000     -30.62750000     -71.40450000
C      -43.38960000     -32.34730000     -70.74470000
H      -43.40360000     -33.40820000     -71.13740000
H      -42.36870000     -31.93500000     -70.62320000
C      -45.76180000     -34.60560000     -70.95020000
H      -45.76980000     -33.74770000     -71.60870000
H      -44.75060000     -35.07800000     -70.90310000
C      -46.03850000     -34.07830000     -69.56750000
C      -47.05430000     -34.37270000     -68.69870000
C      -45.18900000     -33.04090000     -68.96160000
H      -47.74070000     -35.12340000     -69.01070000
C      -45.50690000     -32.68370000     -67.65080000
C      -44.06230000     -32.26550000     -69.35740000
C      -43.55120000     -31.44830000     -68.40560000
S      -46.98770000     -33.48220000     -67.06900000
S      -44.50390000     -31.50010000     -66.90800000
H      -42.73110000     -30.77750000     -68.56390000
