40
Properties=species:S:1:pos:R:3 #=T CELL(abcABC):=T 1.889726e+02=T 90.00000=T Traj:=T positionsangstrom=T Step:=T 0=T Bead:=T pbc="F F F"
C      -45.11000000     -32.38830000     -74.63340000
C      -44.28110000     -33.45890000     -74.33250000
C      -44.82440000     -34.72990000     -74.29620000
C      -46.18480000     -34.95790000     -74.47910000
C      -47.08300000     -33.87120000     -74.64380000
C      -46.49370000     -32.58380000     -74.81990000
H      -44.72890000     -31.40040000     -74.83070000
H      -44.20410000     -35.49840000     -73.95340000
H      -48.14530000     -34.08220000     -74.72250000
H      -47.21720000     -31.79220000     -75.02840000
C      -46.78330000     -36.32890000     -74.23830000
H      -46.33690000     -37.11350000     -74.85490000
H      -47.88350000     -36.31060000     -74.40150000
C      -42.86630000     -33.27190000     -73.88340000
H      -42.75420000     -34.00160000     -73.07210000
H      -42.17090000     -33.60030000     -74.63160000
S      -46.17010000     -36.96900000     -72.58240000
S      -42.38750000     -31.68360000     -73.16480000
C      -46.79110000     -35.90210000     -71.17370000
H      -47.73820000     -35.51790000     -71.61970000
H      -47.16480000     -36.56120000     -70.42400000
C      -43.17070000     -31.53930000     -71.54420000
H      -44.18740000     -31.14880000     -71.75090000
H      -42.61730000     -30.64610000     -71.05770000
C      -43.15240000     -32.73290000     -70.52230000
H      -43.50020000     -33.65850000     -71.04280000
H      -42.13180000     -32.73240000     -70.22070000
C      -45.77900000     -34.82330000     -70.86600000
H      -45.51550000     -34.27170000     -71.77620000
H      -44.85170000     -35.29530000     -70.41760000
C      -46.30590000     -33.86100000     -69.79200000
C      -47.48140000     -33.96580000     -69.09640000
C      -45.43670000     -32.85190000     -69.19080000
H      -48.27230000     -34.66730000     -69.30120000
C      -46.04700000     -32.24020000     -68.05930000
C      -44.10150000     -32.28700000     -69.35860000
C      -43.68610000     -31.41330000     -68.42810000
S      -47.68740000     -32.76820000     -67.78770000
S      -45.06990000     -30.96990000     -67.35920000
H      -42.77380000     -30.85630000     -68.24530000
