40
Properties=species:S:1:pos:R:3 #=T CELL(abcABC):=T 1.889726e+02=T 90.00000=T Traj:=T positionsangstrom=T Step:=T 0=T Bead:=T pbc="F F F"
C      -45.41830000     -32.12570000     -74.53780000
C      -44.42610000     -33.14380000     -74.55220000
C      -44.82750000     -34.49800000     -74.52700000
C      -46.18410000     -34.78560000     -74.29560000
C      -47.17670000     -33.78140000     -74.26600000
C      -46.75690000     -32.43840000     -74.41380000
H      -45.16160000     -31.01600000     -74.51890000
H      -44.04840000     -35.28480000     -74.45300000
H      -48.13900000     -34.13980000     -74.20930000
H      -47.48720000     -31.59250000     -74.33090000
C      -46.68260000     -36.14210000     -74.13370000
H      -46.05410000     -36.76340000     -74.90710000
H      -47.75690000     -36.19960000     -74.28490000
C      -42.94830000     -32.75600000     -74.57250000
H      -42.40520000     -33.63830000     -74.13810000
H      -42.47790000     -32.47080000     -75.58940000
S      -46.24050000     -37.02620000     -72.52970000
S      -42.61360000     -31.35060000     -73.39630000
C      -46.76950000     -35.98300000     -71.12620000
H      -47.88650000     -35.94770000     -71.16290000
H      -46.65820000     -36.60530000     -70.20610000
C      -43.64840000     -31.57960000     -71.78320000
H      -44.66900000     -31.59370000     -72.11420000
H      -43.42610000     -30.60780000     -71.32850000
C      -43.26230000     -32.65990000     -70.76990000
H      -43.63640000     -33.62850000     -71.16850000
H      -42.19070000     -32.57120000     -70.50290000
C      -46.07720000     -34.60180000     -71.00590000
H      -46.50150000     -34.05880000     -71.81540000
H      -44.97340000     -34.85630000     -71.24740000
C      -46.19780000     -33.97310000     -69.71180000
C      -47.35920000     -34.09490000     -68.96960000
C      -45.31580000     -33.00780000     -69.17010000
H      -48.15140000     -34.80760000     -69.17240000
C      -45.81260000     -32.47100000     -67.99430000
C      -43.99980000     -32.45080000     -69.50680000
C      -43.55130000     -31.63700000     -68.50270000
S      -47.35340000     -33.14150000     -67.50140000
S      -44.72880000     -31.34970000     -67.20820000
H      -42.65040000     -31.03210000     -68.69850000
