40
Properties=species:S:1:pos:R:3 #=T CELL(abcABC):=T 1.889726e+02=T 90.00000=T Traj:=T positionsangstrom=T Step:=T 0=T Bead:=T pbc="F F F"
C      -46.28280000     -32.11940000     -75.02700000
C      -45.22440000     -32.86770000     -74.44320000
C      -45.43880000     -34.17660000     -74.00050000
C      -46.74770000     -34.78120000     -74.25700000
C      -47.69950000     -34.02790000     -74.91040000
C      -47.52380000     -32.68380000     -75.22580000
H      -46.03370000     -31.08290000     -75.36100000
H      -44.74120000     -34.79990000     -73.38620000
H      -48.63140000     -34.50940000     -74.98350000
H      -48.36830000     -32.00390000     -75.57040000
C      -47.14980000     -36.22020000     -73.89040000
H      -47.21930000     -36.87130000     -74.74460000
H      -48.15450000     -36.22410000     -73.55040000
C      -43.78150000     -32.25090000     -74.38610000
H      -42.97210000     -32.92760000     -73.96360000
H      -43.39190000     -32.15830000     -75.44330000
S      -45.96460000     -36.95370000     -72.71120000
S      -43.65990000     -30.57780000     -73.68290000
C      -46.36050000     -36.14520000     -71.03970000
H      -47.45100000     -36.04750000     -70.88650000
H      -45.95150000     -36.86940000     -70.26630000
C      -44.13070000     -30.85700000     -71.87360000
H      -45.20330000     -30.85470000     -71.83580000
H      -43.75410000     -29.92020000     -71.40980000
C      -43.66260000     -32.15560000     -71.14910000
H      -43.94940000     -33.09320000     -71.66790000
H      -42.51130000     -32.19730000     -71.08190000
C      -45.81980000     -34.74060000     -70.86330000
H      -46.43270000     -34.05990000     -71.55160000
H      -44.84540000     -34.70500000     -71.37060000
C      -45.78970000     -34.20900000     -69.47930000
C      -46.50300000     -34.71180000     -68.44610000
C      -44.90300000     -33.17980000     -69.06200000
H      -47.21920000     -35.48160000     -68.44730000
C      -45.01460000     -32.90280000     -67.69730000
C      -44.04860000     -32.18570000     -69.67450000
C      -43.36580000     -31.43190000     -68.79400000
S      -46.13030000     -33.94680000     -66.91720000
S      -43.88480000     -31.64040000     -67.15810000
H      -42.56900000     -30.78450000     -69.08270000
