40
Properties=species:S:1:pos:R:3 #=T CELL(abcABC):=T 1.889726e+02=T 90.00000=T Traj:=T positionsangstrom=T Step:=T 0=T Bead:=T pbc="F F F"
C      -41.65930000     -35.58430000     -70.88060000
C      -42.71550000     -35.05050000     -70.11760000
C      -42.70550000     -33.68760000     -69.85540000
C      -41.77400000     -32.80960000     -70.55510000
C      -40.72750000     -33.38770000     -71.35650000
C      -40.68920000     -34.76970000     -71.50200000
H      -41.53450000     -36.60350000     -70.97420000
H      -43.42020000     -33.20480000     -69.14750000
H      -40.16650000     -32.67850000     -71.89690000
H      -39.98890000     -35.17000000     -72.28080000
C      -41.92650000     -31.35510000     -70.29420000
H      -40.95320000     -30.89700000     -70.51560000
H      -42.34220000     -31.05170000     -69.29550000
C      -43.60630000     -35.94160000     -69.27030000
H      -42.98550000     -36.53230000     -68.54590000
H      -44.32830000     -35.38740000     -68.62200000
S      -42.91340000     -30.43870000     -71.67810000
S      -44.56210000     -37.18040000     -70.23330000
C      -44.52780000     -31.44600000     -71.99660000
H      -45.03380000     -31.00820000     -72.81260000
H      -44.23400000     -32.46210000     -72.13400000
C      -46.09500000     -36.16370000     -70.37490000
H      -46.50830000     -36.06820000     -69.36740000
H      -46.85640000     -36.68720000     -70.97050000
C      -45.91930000     -34.73590000     -71.00080000
H      -45.45350000     -34.08400000     -70.19100000
H      -45.13850000     -34.79280000     -71.73900000
C      -45.49260000     -31.42210000     -70.75070000
H      -45.41890000     -30.52270000     -70.11090000
H      -45.37770000     -32.25530000     -70.00340000
C      -46.88430000     -31.52160000     -71.30960000
C      -47.66420000     -30.44680000     -71.64770000
C      -47.58130000     -32.75390000     -71.70010000
H      -47.24630000     -29.42710000     -71.65140000
C      -48.78060000     -32.59420000     -72.37770000
C      -47.19060000     -34.14520000     -71.65570000
C      -48.15170000     -34.95140000     -72.15150000
S      -49.14840000     -30.89420000     -72.50810000
S      -49.53070000     -34.17810000     -72.83980000
H      -48.11970000     -36.00960000     -72.10630000
