40
Properties=species:S:1:pos:R:3 #=T CELL(abcABC):=T 1.889726e+02=T 90.00000=T Traj:=T positionsangstrom=T Step:=T 0=T Bead:=T pbc="F F F"
C      -45.10460000     -34.08590000     -67.51530000
C      -44.71940000     -34.95030000     -68.50500000
C      -43.61330000     -34.56710000     -69.30790000
C      -42.84350000     -33.46290000     -68.95510000
C      -43.08370000     -32.76940000     -67.70170000
C      -44.25500000     -33.06690000     -66.95080000
H      -45.97200000     -34.23160000     -66.89260000
H      -43.31130000     -35.17560000     -70.07090000
H      -42.39430000     -31.87300000     -67.36510000
H      -44.50810000     -32.41450000     -66.13100000
C      -41.53310000     -33.13920000     -69.69660000
H      -41.02810000     -34.05180000     -70.00450000
H      -40.92710000     -32.57720000     -68.96880000
C      -45.58550000     -36.12180000     -68.95710000
H      -44.79860000     -36.73460000     -69.51200000
H      -45.87450000     -36.62750000     -68.04550000
S      -41.56560000     -31.86410000     -71.04650000
S      -46.90360000     -35.63840000     -70.12220000
C      -42.90980000     -32.17810000     -72.32400000
H      -42.60890000     -31.60140000     -73.22550000
H      -43.02440000     -33.24940000     -72.56640000
C      -47.53420000     -34.03750000     -69.49890000
H      -47.33530000     -33.97180000     -68.42860000
H      -48.65800000     -34.06620000     -69.43260000
C      -47.08450000     -32.88970000     -70.40860000
H      -47.44620000     -31.85920000     -70.04710000
H      -46.01160000     -32.68460000     -70.20910000
C      -44.28190000     -31.60100000     -71.95210000
H      -44.21860000     -30.53250000     -71.73380000
H      -44.65230000     -32.18410000     -71.07890000
C      -45.24160000     -32.02610000     -73.04520000
C      -44.97620000     -31.65130000     -74.35290000
C      -46.47870000     -32.77700000     -72.93820000
H      -44.23590000     -30.88430000     -74.71190000
C      -46.95550000     -33.14580000     -74.21170000
C      -47.23850000     -33.30310000     -71.84360000
C      -48.31420000     -34.01610000     -72.35360000
S      -46.07830000     -32.35810000     -75.49120000
S      -48.39350000     -34.12360000     -74.08330000
H      -49.03930000     -34.47520000     -71.75500000
