40
Properties=species:S:1:pos:R:3 #=T CELL(abcABC):=T 1.889726e+02=T 90.00000=T Traj:=T positionsangstrom=T Step:=T 0=T Bead:=T pbc="F F F"
C      -44.83000000     -34.39620000     -67.29470000
C      -44.67450000     -35.03870000     -68.54630000
C      -43.55920000     -34.68610000     -69.33470000
C      -42.64840000     -33.70490000     -68.92080000
C      -42.85190000     -33.04810000     -67.72810000
C      -44.01470000     -33.33950000     -66.95500000
H      -45.81350000     -34.46410000     -66.79480000
H      -43.52380000     -35.06530000     -70.43810000
H      -42.15470000     -32.31780000     -67.44410000
H      -44.19720000     -32.85460000     -65.98100000
C      -41.41310000     -33.34190000     -69.74050000
H      -41.07890000     -34.22210000     -70.40870000
H      -40.51770000     -33.19250000     -69.09110000
C      -45.59640000     -36.23120000     -68.78490000
H      -45.27920000     -37.17510000     -69.11470000
H      -46.28610000     -36.59000000     -67.94260000
S      -41.74660000     -31.81180000     -70.73760000
S      -46.96050000     -35.90610000     -70.08440000
C      -43.12040000     -32.23990000     -72.00530000
H      -42.65700000     -32.28270000     -72.98080000
H      -43.56670000     -33.19500000     -71.84920000
C      -47.59930000     -34.20430000     -69.59740000
H      -47.26300000     -34.04320000     -68.54220000
H      -48.65700000     -34.23890000     -69.66880000
C      -46.98110000     -33.19080000     -70.46080000
H      -47.36350000     -32.16670000     -70.13770000
H      -45.88570000     -33.20960000     -70.23370000
C      -44.27240000     -31.25190000     -72.05440000
H      -43.98970000     -30.19440000     -72.32580000
H      -44.70760000     -31.17980000     -71.04980000
C      -45.24660000     -31.84100000     -73.07820000
C      -44.91970000     -31.53070000     -74.36900000
C      -46.47300000     -32.62820000     -73.02040000
H      -44.00350000     -31.05030000     -74.66800000
C      -47.04360000     -32.73120000     -74.24910000
C      -47.26930000     -33.29590000     -71.97300000
C      -48.30930000     -34.00110000     -72.49930000
S      -46.08780000     -32.07070000     -75.55000000
S      -48.49900000     -33.75790000     -74.31920000
H      -48.95490000     -34.80600000     -72.04640000
