40
Properties=species:S:1:pos:R:3 #=T CELL(abcABC):=T 1.889726e+02=T 90.00000=T Traj:=T positionsangstrom=T Step:=T 0=T Bead:=T pbc="F F F"
C      -49.18890000     -32.71450000     -70.60540000
C      -48.50130000     -31.78580000     -71.38950000
C      -47.92010000     -32.08070000     -72.65260000
C      -47.97140000     -33.36960000     -73.16030000
C      -48.66190000     -34.37410000     -72.40740000
C      -49.25020000     -33.99540000     -71.19640000
H      -49.80560000     -32.46320000     -69.73010000
H      -47.38300000     -31.35800000     -73.18630000
H      -48.67330000     -35.42810000     -72.74170000
H      -49.76460000     -34.72320000     -70.60650000
C      -47.28000000     -33.62390000     -74.44590000
H      -46.46360000     -32.95290000     -74.52410000
H      -47.89530000     -33.52060000     -75.32060000
C      -48.38130000     -30.39740000     -70.84290000
H      -48.85740000     -29.61240000     -71.42150000
H      -48.78160000     -30.37350000     -69.78200000
S      -46.62180000     -35.32660000     -74.51420000
S      -46.61210000     -29.80520000     -70.56490000
C      -45.51800000     -35.38990000     -73.06880000
H      -46.05400000     -35.38390000     -72.08770000
H      -45.14100000     -36.39980000     -73.10570000
C      -45.87570000     -31.06140000     -69.42040000
H      -46.68950000     -31.44320000     -68.78600000
H      -45.16900000     -30.55170000     -68.85700000
C      -45.32810000     -32.19710000     -70.41430000
H      -46.11050000     -32.92290000     -70.34490000
H      -45.19990000     -31.80350000     -71.38970000
C      -44.25240000     -34.47520000     -73.01140000
H      -44.69410000     -33.48160000     -73.12810000
H      -43.75910000     -34.69860000     -73.93780000
C      -43.34820000     -34.70660000     -71.89300000
C      -42.30630000     -35.63720000     -71.95190000
C      -43.23880000     -33.93180000     -70.69180000
H      -42.02790000     -36.32030000     -72.78540000
C      -42.18270000     -34.29980000     -69.91610000
C      -43.97510000     -32.88640000     -69.97020000
C      -43.45060000     -32.66060000     -68.73110000
S      -41.26180000     -35.56480000     -70.62780000
S      -41.91720000     -33.48040000     -68.39560000
H      -43.96710000     -32.02420000     -67.97860000
