40
Properties=species:S:1:pos:R:3 #=T CELL(abcABC):=T 1.889726e+02=T 90.00000=T Traj:=T positionsangstrom=T Step:=T 0=T Bead:=T pbc="F F F"
C      -41.67310000     -35.57360000     -71.37540000
C      -42.65710000     -35.26350000     -70.37090000
C      -42.80870000     -33.96110000     -69.87380000
C      -41.93730000     -32.99820000     -70.42240000
C      -40.86120000     -33.34080000     -71.26170000
C      -40.79390000     -34.61810000     -71.81700000
H      -41.58830000     -36.53490000     -71.88880000
H      -43.62540000     -33.71630000     -69.25140000
H      -40.10400000     -32.60770000     -71.56600000
H      -39.98190000     -34.82760000     -72.48610000
C      -42.13360000     -31.57940000     -70.08280000
H      -41.11220000     -31.08820000     -69.78970000
H      -42.93740000     -31.41460000     -69.31120000
C      -43.55440000     -36.29050000     -69.75900000
H      -42.94050000     -37.13790000     -69.21170000
H      -44.27390000     -35.83670000     -69.07830000
S      -42.65540000     -30.58350000     -71.52760000
S      -44.56750000     -37.21550000     -71.02220000
C      -44.07120000     -31.58130000     -72.20160000
H      -44.25340000     -31.09700000     -73.14800000
H      -43.60090000     -32.55130000     -72.40970000
C      -46.12090000     -36.23520000     -71.13180000
H      -46.73490000     -36.46220000     -70.27870000
H      -46.53810000     -36.74150000     -72.01210000
C      -46.00070000     -34.76350000     -71.30490000
H      -45.31620000     -34.38340000     -70.52620000
H      -45.43150000     -34.64180000     -72.25390000
C      -45.22400000     -31.58420000     -71.25950000
H      -45.22650000     -30.71390000     -70.66920000
H      -45.07300000     -32.40510000     -70.63100000
C      -46.59390000     -31.63240000     -71.90630000
C      -47.20700000     -30.51150000     -72.25910000
C      -47.51620000     -32.72050000     -71.59510000
H      -46.74190000     -29.60040000     -72.48000000
C      -48.88930000     -32.32950000     -71.74440000
C      -47.34040000     -34.08050000     -71.26900000
C      -48.53510000     -34.73600000     -71.18530000
S      -49.04820000     -30.72830000     -72.35780000
S      -49.97850000     -33.69040000     -71.41760000
H      -48.67020000     -35.83810000     -70.98240000
