40
Properties=species:S:1:pos:R:3 #=T CELL(abcABC):=T 1.889726e+02=T 90.00000=T Traj:=T positionsangstrom=T Step:=T 0=T Bead:=T pbc="F F F"
C      -41.88230000     -34.99890000     -70.44920000
C      -42.76510000     -34.47650000     -69.49330000
C      -42.76550000     -33.09400000     -69.37750000
C      -42.02280000     -32.28210000     -70.24420000
C      -41.19920000     -32.81510000     -71.18960000
C      -41.13170000     -34.18450000     -71.27050000
H      -41.70820000     -36.06810000     -70.60820000
H      -43.33390000     -32.60610000     -68.55090000
H      -40.56930000     -32.20350000     -71.85730000
H      -40.58510000     -34.62720000     -72.11280000
C      -42.10040000     -30.80140000     -70.17710000
H      -41.10030000     -30.45920000     -70.52740000
H      -42.30500000     -30.43230000     -69.15360000
C      -43.45340000     -35.31420000     -68.41540000
H      -42.73510000     -35.66010000     -67.63690000
H      -44.09310000     -34.63490000     -67.75670000
S      -43.37210000     -29.99070000     -71.24400000
S      -44.55920000     -36.64650000     -69.06750000
C      -44.51010000     -31.35180000     -71.82060000
H      -44.72730000     -31.18040000     -72.82120000
H      -43.91520000     -32.27460000     -71.92590000
C      -45.97790000     -35.62670000     -69.87540000
H      -46.20910000     -34.81280000     -69.24360000
H      -46.73390000     -36.29290000     -70.09200000
C      -45.58780000     -35.06350000     -71.26670000
H      -44.81940000     -34.23870000     -71.12600000
H      -45.13790000     -35.90290000     -71.78370000
C      -45.79800000     -31.61050000     -70.98760000
H      -45.96830000     -30.70910000     -70.38740000
H      -45.64230000     -32.42920000     -70.29720000
C      -46.97990000     -32.01510000     -71.90820000
C      -47.87240000     -31.05940000     -72.30660000
C      -47.30850000     -33.34530000     -72.26530000
H      -47.86080000     -30.01220000     -71.99440000
C      -48.46600000     -33.32630000     -73.06000000
C      -46.85670000     -34.68330000     -72.02290000
C      -47.67810000     -35.61460000     -72.69920000
S      -49.10700000     -31.68270000     -73.37360000
S      -49.02170000     -34.89660000     -73.61450000
H      -47.51830000     -36.73450000     -72.82640000
