40
Properties=species:S:1:pos:R:3 #=T CELL(abcABC):=T 1.889726e+02=T 90.00000=T Traj:=T positionsangstrom=T Step:=T 0=T Bead:=T pbc="F F F"
C      -41.96990000     -35.06880000     -70.49270000
C      -42.71850000     -34.55810000     -69.43240000
C      -42.69100000     -33.12520000     -69.28300000
C      -42.13720000     -32.36480000     -70.28760000
C      -41.38220000     -32.94810000     -71.33550000
C      -41.28400000     -34.31780000     -71.41790000
H      -41.95100000     -36.21020000     -70.63910000
H      -43.18930000     -32.70370000     -68.45590000
H      -40.99440000     -32.33550000     -72.11070000
H      -40.60770000     -34.88690000     -72.00660000
C      -42.32610000     -30.88250000     -70.11440000
H      -41.27330000     -30.40450000     -69.94130000
H      -42.81440000     -30.74880000     -69.20950000
C      -43.41120000     -35.47850000     -68.41420000
H      -42.67990000     -36.24540000     -67.98890000
H      -43.79320000     -34.87960000     -67.63220000
S      -43.28020000     -30.08680000     -71.46800000
S      -44.71970000     -36.47140000     -69.14080000
C      -44.45970000     -31.44980000     -71.92490000
H      -44.82620000     -31.04200000     -72.91860000
H      -43.95180000     -32.41900000     -72.01010000
C      -45.93100000     -35.47410000     -69.91840000
H      -45.97290000     -34.54830000     -69.24650000
H      -46.93980000     -35.93510000     -69.71700000
C      -45.53150000     -35.12140000     -71.36060000
H      -44.72920000     -34.32890000     -71.36360000
H      -45.06800000     -35.98860000     -71.98190000
C      -45.65020000     -31.68520000     -70.98540000
H      -45.80890000     -30.83110000     -70.31980000
H      -45.40110000     -32.50480000     -70.26980000
C      -46.90170000     -31.94340000     -71.77340000
C      -47.80790000     -30.98730000     -72.10690000
C      -47.27230000     -33.28110000     -72.28750000
H      -47.60890000     -29.95180000     -71.94690000
C      -48.46560000     -33.24510000     -73.01540000
C      -46.72010000     -34.68130000     -72.18720000
C      -47.60630000     -35.57750000     -72.74650000
S      -49.14940000     -31.65150000     -73.06200000
S      -48.94330000     -34.76850000     -73.53650000
H      -47.38250000     -36.62560000     -72.84140000
