40
Properties=species:S:1:pos:R:3 #=T CELL(abcABC):=T 1.889726e+02=T 90.00000=T Traj:=T positionsangstrom=T Step:=T 0=T Bead:=T pbc="F F F"
C      -41.86890000     -35.51300000     -70.52340000
C      -42.69140000     -34.93410000     -69.56560000
C      -42.83510000     -33.55430000     -69.51130000
C      -42.23890000     -32.75050000     -70.45560000
C      -41.36480000     -33.32100000     -71.41280000
C      -41.19570000     -34.70180000     -71.48120000
H      -41.77800000     -36.58700000     -70.45810000
H      -43.40510000     -33.17100000     -68.71340000
H      -40.94170000     -32.64690000     -72.16850000
H      -40.53110000     -35.14250000     -72.19580000
C      -42.30470000     -31.22780000     -70.29400000
H      -41.29870000     -30.76150000     -69.95980000
H      -42.93790000     -30.94890000     -69.49110000
C      -43.35920000     -35.95040000     -68.67850000
H      -42.60890000     -36.80850000     -68.50510000
H      -43.66420000     -35.51290000     -67.72840000
S      -42.94810000     -30.30960000     -71.74790000
S      -44.88180000     -36.70890000     -69.55140000
C      -44.59940000     -30.93210000     -72.14650000
H      -45.16130000     -30.09410000     -72.69990000
H      -44.56300000     -31.70020000     -72.91480000
C      -45.65380000     -35.13210000     -70.16270000
H      -45.41390000     -34.21520000     -69.55440000
H      -46.64260000     -35.44970000     -70.00190000
C      -45.37400000     -34.88590000     -71.68050000
H      -44.54610000     -34.18960000     -71.83760000
H      -45.21050000     -35.77900000     -72.18460000
C      -45.48780000     -31.46570000     -70.96270000
H      -45.64550000     -30.66530000     -70.17220000
H      -44.88520000     -32.29670000     -70.53450000
C      -46.81710000     -31.78320000     -71.54720000
C      -47.82390000     -30.83320000     -71.68880000
C      -47.30490000     -33.05970000     -71.99880000
H      -47.71360000     -29.77330000     -71.41900000
C      -48.56860000     -32.95640000     -72.52400000
C      -46.69770000     -34.36260000     -72.17140000
C      -47.60480000     -35.20560000     -72.80690000
S      -49.32880000     -31.39190000     -72.35130000
S      -49.13190000     -34.44290000     -73.26800000
H      -47.41440000     -36.29470000     -72.95390000
