40
Properties=species:S:1:pos:R:3 #=T CELL(abcABC):=T 1.889726e+02=T 90.00000=T Traj:=T positionsangstrom=T Step:=T 0=T Bead:=T pbc="F F F"
C      -41.93610000     -35.31630000     -70.52800000
C      -42.64260000     -34.80140000     -69.39670000
C      -42.88940000     -33.44340000     -69.28250000
C      -42.42170000     -32.51470000     -70.23080000
C      -41.62860000     -33.02790000     -71.20980000
C      -41.42040000     -34.39420000     -71.44030000
H      -41.88750000     -36.35410000     -70.65820000
H      -43.53860000     -33.06190000     -68.42290000
H      -41.12790000     -32.29240000     -71.86220000
H      -40.99070000     -34.75800000     -72.43530000
C      -42.55760000     -30.96170000     -70.16940000
H      -41.65150000     -30.48830000     -69.95990000
H      -43.32690000     -30.66380000     -69.32700000
C      -43.28570000     -35.76830000     -68.40540000
H      -42.67050000     -36.63570000     -68.29740000
H      -43.48430000     -35.38330000     -67.34500000
S      -42.97330000     -30.17230000     -71.79210000
S      -44.90290000     -36.49740000     -69.17990000
C      -44.49920000     -31.13140000     -72.33170000
H      -44.96070000     -30.50690000     -73.04870000
H      -44.23600000     -32.04340000     -72.95860000
C      -45.75440000     -35.03700000     -70.04130000
H      -45.53790000     -34.08620000     -69.49030000
H      -46.82830000     -35.35740000     -69.97740000
C      -45.39490000     -35.01140000     -71.49150000
H      -44.55170000     -34.32700000     -71.74750000
H      -45.15030000     -36.02960000     -71.91960000
C      -45.46830000     -31.49110000     -71.19720000
H      -45.62540000     -30.53480000     -70.61940000
H      -45.04920000     -32.27370000     -70.55400000
C      -46.80830000     -31.88760000     -71.73400000
C      -47.84150000     -30.96280000     -71.90350000
C      -47.17170000     -33.22270000     -72.24150000
H      -47.89080000     -29.92250000     -71.51580000
C      -48.44850000     -33.14100000     -72.83390000
C      -46.56480000     -34.58760000     -72.28520000
C      -47.45880000     -35.49440000     -72.87470000
S      -49.29410000     -31.65680000     -72.49500000
S      -48.92510000     -34.69220000     -73.46550000
H      -47.27700000     -36.52030000     -73.08880000
