40
Properties=species:S:1:pos:R:3 #=T CELL(abcABC):=T 1.889726e+02=T 90.00000=T Traj:=T positionsangstrom=T Step:=T 0=T Bead:=T pbc="F F F"
C      -41.85510000     -34.11170000     -69.70200000
C      -42.94380000     -33.61450000     -68.98840000
C      -43.27540000     -32.25340000     -69.06730000
C      -42.58650000     -31.41010000     -69.90230000
C      -41.50950000     -31.91700000     -70.67270000
C      -41.07520000     -33.21500000     -70.47590000
H      -41.57320000     -35.06600000     -69.70010000
H      -44.12190000     -31.86360000     -68.47590000
H      -41.07590000     -31.15100000     -71.32080000
H      -40.20230000     -33.64910000     -70.97690000
C      -43.04610000     -29.96160000     -70.05950000
H      -42.48830000     -29.38730000     -70.85840000
H      -42.83120000     -29.42740000     -69.16520000
C      -43.69550000     -34.48480000     -68.03660000
H      -43.06680000     -34.93980000     -67.26640000
H      -44.53490000     -33.91610000     -67.67310000
S      -44.86660000     -29.67940000     -70.28200000
S      -44.56650000     -36.03230000     -68.73340000
C      -45.31630000     -30.89750000     -71.62850000
H      -45.84920000     -30.46040000     -72.42770000
H      -44.35490000     -31.36050000     -72.02420000
C      -45.65900000     -35.29550000     -69.98480000
H      -45.91350000     -34.32150000     -69.59500000
H      -46.58530000     -35.92770000     -70.01540000
C      -44.97860000     -35.11330000     -71.36330000
H      -44.29520000     -34.20070000     -71.20050000
H      -44.28410000     -35.95910000     -71.59070000
C      -46.28760000     -32.03080000     -71.09020000
H      -46.98690000     -31.58090000     -70.31330000
H      -45.75230000     -32.81970000     -70.56490000
C      -47.14710000     -32.66740000     -72.17140000
C      -48.13720000     -32.02940000     -72.91280000
C      -47.00540000     -34.05840000     -72.64980000
H      -48.42590000     -31.02800000     -72.70230000
C      -47.88200000     -34.38430000     -73.68770000
C      -46.00330000     -35.09020000     -72.46080000
C      -46.15350000     -36.12270000     -73.37050000
S      -49.01630000     -33.05910000     -74.02940000
S      -47.44210000     -35.79660000     -74.52640000
H      -45.58190000     -37.06250000     -73.39680000
