40
Properties=species:S:1:pos:R:3 #=T CELL(abcABC):=T 1.889726e+02=T 90.00000=T Traj:=T positionsangstrom=T Step:=T 0=T Bead:=T pbc="F F F"
C      -41.95300000     -34.71120000     -70.38260000
C      -42.76250000     -34.09090000     -69.40970000
C      -43.00010000     -32.71730000     -69.40360000
C      -42.25370000     -31.85380000     -70.27810000
C      -41.43200000     -32.45180000     -71.19170000
C      -41.23740000     -33.83210000     -71.23750000
H      -41.92540000     -35.74110000     -70.49420000
H      -43.66820000     -32.41090000     -68.63930000
H      -40.82120000     -31.80800000     -71.86720000
H      -40.59010000     -34.32000000     -71.94120000
C      -42.43060000     -30.33820000     -70.23380000
H      -41.74870000     -29.79970000     -70.95970000
H      -42.06090000     -29.97640000     -69.31190000
C      -43.44800000     -35.01910000     -68.40160000
H      -42.78950000     -35.36510000     -67.60090000
H      -44.13320000     -34.42200000     -67.76490000
S      -44.17500000     -29.76300000     -70.36060000
S      -44.19100000     -36.56710000     -69.05730000
C      -45.05130000     -30.87680000     -71.50610000
H      -45.44290000     -30.25630000     -72.38080000
H      -44.37650000     -31.65910000     -71.91360000
C      -45.77690000     -35.99010000     -69.93470000
H      -46.47850000     -35.59610000     -69.07730000
H      -46.23540000     -36.92290000     -70.43080000
C      -45.54250000     -34.85770000     -70.95440000
H      -45.38810000     -34.00120000     -70.32650000
H      -44.63940000     -35.00290000     -71.59290000
C      -46.39550000     -31.50500000     -70.87380000
H      -46.98890000     -30.61830000     -70.47980000
H      -46.16870000     -32.25250000     -70.09410000
C      -47.17720000     -32.17240000     -71.97440000
C      -48.07500000     -31.40680000     -72.72510000
C      -47.27430000     -33.56060000     -72.29080000
H      -48.13470000     -30.34160000     -72.78810000
C      -48.18760000     -33.75450000     -73.34370000
C      -46.63540000     -34.77420000     -71.94760000
C      -47.07730000     -35.84360000     -72.65410000
S      -48.85150000     -32.31650000     -73.97930000
S      -48.23020000     -35.40730000     -73.95040000
H      -46.71570000     -36.87210000     -72.53340000
