40
Properties=species:S:1:pos:R:3 #=T CELL(abcABC):=T 1.889726e+02=T 90.00000=T Traj:=T positionsangstrom=T Step:=T 0=T Bead:=T pbc="F F F"
C      -41.96810000     -34.30690000     -69.85800000
C      -42.91810000     -33.79750000     -68.94090000
C      -43.22560000     -32.39830000     -69.05820000
C      -42.62870000     -31.65560000     -70.07650000
C      -41.72800000     -32.21350000     -71.01280000
C      -41.40560000     -33.49980000     -70.87220000
H      -41.79290000     -35.43830000     -69.91860000
H      -43.89710000     -31.95650000     -68.36980000
H      -41.33400000     -31.51810000     -71.82600000
H      -40.61290000     -33.89960000     -71.52330000
C      -42.91480000     -30.12450000     -70.23850000
H      -42.51010000     -29.81280000     -71.27470000
H      -42.38330000     -29.53580000     -69.46810000
C      -43.61090000     -34.71510000     -67.98330000
H      -42.84790000     -35.19600000     -67.39540000
H      -44.41130000     -34.26600000     -67.39110000
S      -44.73000000     -29.70090000     -70.17300000
S      -44.25340000     -36.21180000     -68.85270000
C      -45.41310000     -30.64940000     -71.48890000
H      -45.92900000     -30.01210000     -72.23320000
H      -44.57710000     -31.16150000     -72.05190000
C      -45.61960000     -35.61910000     -69.88150000
H      -46.24370000     -34.88920000     -69.40490000
H      -46.24190000     -36.52560000     -69.95460000
C      -45.10770000     -34.98070000     -71.21860000
H      -44.86610000     -33.92550000     -70.97310000
H      -44.22720000     -35.55390000     -71.51150000
C      -46.35260000     -31.72470000     -71.06900000
H      -47.00270000     -31.20380000     -70.38090000
H      -45.82490000     -32.51600000     -70.44660000
C      -47.18750000     -32.44000000     -72.19070000
C      -48.15340000     -31.81880000     -72.93950000
C      -46.99550000     -33.83940000     -72.55610000
H      -48.44990000     -30.70330000     -72.95670000
C      -47.84180000     -34.10290000     -73.63050000
C      -46.14590000     -34.96320000     -72.25870000
C      -46.40080000     -36.00840000     -73.10250000
S      -48.82260000     -32.83810000     -74.19930000
S      -47.65380000     -35.71260000     -74.26340000
H      -45.86900000     -36.93170000     -73.01000000
