40
Properties=species:S:1:pos:R:3 #=T CELL(abcABC):=T 1.889726e+02=T 90.00000=T Traj:=T positionsangstrom=T Step:=T 0=T Bead:=T pbc="F F F"
C      -41.90660000     -34.47720000     -70.12430000
C      -42.87260000     -33.87020000     -69.12230000
C      -43.12880000     -32.50300000     -69.24560000
C      -42.50680000     -31.69310000     -70.22440000
C      -41.65710000     -32.31200000     -71.17730000
C      -41.34180000     -33.66760000     -71.05790000
H      -41.66410000     -35.53480000     -70.06100000
H      -43.84130000     -31.95730000     -68.51440000
H      -41.30550000     -31.69740000     -72.00820000
H      -40.68200000     -34.26190000     -71.75160000
C      -42.83930000     -30.23780000     -70.21930000
H      -42.33680000     -29.69780000     -71.00070000
H      -42.47000000     -29.73120000     -69.35860000
C      -43.51460000     -34.65480000     -68.04390000
H      -42.84950000     -34.85790000     -67.16180000
H      -44.29350000     -34.05490000     -67.53960000
S      -44.58000000     -29.75260000     -70.13950000
S      -44.23870000     -36.30800000     -68.60190000
C      -45.48210000     -30.72680000     -71.54770000
H      -45.88580000     -29.98660000     -72.17830000
H      -44.74480000     -31.28350000     -72.10580000
C      -45.58660000     -35.82510000     -69.79540000
H      -46.44800000     -35.37770000     -69.22720000
H      -45.90740000     -36.80600000     -70.13730000
C      -45.23630000     -34.98300000     -71.02440000
H      -44.97520000     -33.94450000     -70.73950000
H      -44.36580000     -35.37680000     -71.53620000
C      -46.57890000     -31.61570000     -71.00370000
H      -47.31290000     -31.09200000     -70.40750000
H      -46.08570000     -32.31720000     -70.28950000
C      -47.22650000     -32.31590000     -72.22280000
C      -48.09940000     -31.61720000     -73.01120000
C      -47.05690000     -33.73230000     -72.60040000
H      -48.42720000     -30.48100000     -72.91890000
C      -47.82500000     -33.98080000     -73.74100000
C      -46.33840000     -34.90800000     -72.09750000
C      -46.54010000     -35.96130000     -72.93820000
S      -48.80490000     -32.65080000     -74.26190000
S      -47.77080000     -35.65680000     -74.19010000
H      -46.07160000     -36.94640000     -72.75850000
