40
Properties=species:S:1:pos:R:3 #=T CELL(abcABC):=T 1.889726e+02=T 90.00000=T Traj:=T positionsangstrom=T Step:=T 0=T Bead:=T pbc="F F F"
C      -41.56380000     -33.64380000     -69.66350000
C      -42.69790000     -33.34310000     -68.87590000
C      -43.32800000     -32.14490000     -69.11940000
C      -42.90570000     -31.24310000     -70.11870000
C      -41.94160000     -31.64510000     -71.02290000
C      -41.26280000     -32.81730000     -70.77600000
H      -40.87280000     -34.36340000     -69.41960000
H      -44.19420000     -31.84130000     -68.52860000
H      -41.76180000     -31.19540000     -72.03690000
H      -40.51660000     -33.15700000     -71.43830000
C      -43.53690000     -29.93020000     -70.34550000
H      -43.34150000     -29.56730000     -71.33390000
H      -43.16600000     -29.18840000     -69.62930000
C      -43.29210000     -34.24340000     -67.76190000
H      -42.52050000     -34.70050000     -67.19020000
H      -43.97060000     -33.71090000     -67.07330000
S      -45.39760000     -29.88310000     -70.20330000
S      -44.37890000     -35.60390000     -68.54060000
C      -45.81590000     -31.05040000     -71.58640000
H      -46.07240000     -30.46940000     -72.50130000
H      -44.91970000     -31.64550000     -71.72830000
C      -45.47490000     -34.71140000     -69.67760000
H      -45.87940000     -33.72810000     -69.26630000
H      -46.39780000     -35.31710000     -69.80040000
C      -44.84040000     -34.58900000     -71.12860000
H      -44.46370000     -33.61710000     -71.21480000
H      -43.96570000     -35.37600000     -71.16590000
C      -46.97230000     -31.95730000     -71.12280000
H      -47.84590000     -31.28580000     -70.95020000
H      -46.80430000     -32.44110000     -70.23500000
C      -47.48310000     -32.94270000     -72.26860000
C      -48.49640000     -32.57560000     -73.09590000
C      -46.87150000     -34.15880000     -72.73120000
H      -49.23470000     -31.75870000     -72.93380000
C      -47.46200000     -34.69430000     -73.84470000
C      -45.85090000     -35.01630000     -72.20450000
C      -45.66740000     -36.13790000     -73.05300000
S      -48.88090000     -33.71710000     -74.41090000
S      -46.79830000     -36.16050000     -74.34980000
H      -45.06370000     -37.00520000     -72.88420000
