40
Properties=species:S:1:pos:R:3 #=T CELL(abcABC):=T 1.889726e+02=T 90.00000=T Traj:=T positionsangstrom=T Step:=T 0=T Bead:=T pbc="F F F"
C      -42.35960000     -32.33870000     -68.91150000
C      -43.62810000     -32.07940000     -68.55170000
C      -44.41210000     -31.14010000     -69.27540000
C      -43.85350000     -30.44480000     -70.37780000
C      -42.51760000     -30.79940000     -70.77960000
C      -41.79750000     -31.80880000     -70.08900000
H      -41.76080000     -33.05410000     -68.39940000
H      -45.49120000     -31.06100000     -69.07190000
H      -42.17050000     -30.37270000     -71.75810000
H      -40.98190000     -32.31250000     -70.56380000
C      -44.68060000     -29.31670000     -71.18290000
H      -44.12180000     -28.97940000     -72.05430000
H      -44.69600000     -28.48390000     -70.51940000
C      -44.25850000     -32.93730000     -67.44340000
H      -43.79370000     -32.99380000     -66.48030000
H      -45.30870000     -32.68170000     -67.40500000
S      -46.49060000     -29.61940000     -71.41730000
S      -44.34730000     -34.78590000     -67.92890000
C      -46.60370000     -31.04270000     -72.54750000
H      -47.43290000     -30.90570000     -73.17950000
H      -45.75920000     -30.96600000     -73.24790000
C      -45.25350000     -34.69140000     -69.49000000
H      -45.73790000     -33.64640000     -69.54680000
H      -46.02700000     -35.45190000     -69.61810000
C      -44.31260000     -34.78110000     -70.80520000
H      -44.02360000     -33.71850000     -70.98310000
H      -43.44030000     -35.35030000     -70.55180000
C      -46.75940000     -32.38860000     -71.76030000
H      -47.63350000     -32.15700000     -71.14660000
H      -45.89590000     -32.49730000     -71.09020000
C      -46.97590000     -33.70500000     -72.48350000
C      -48.05460000     -33.70240000     -73.39720000
C      -46.17250000     -34.94370000     -72.63200000
H      -48.68220000     -32.86360000     -73.83020000
C      -46.57350000     -35.72610000     -73.68860000
C      -45.00540000     -35.43920000     -71.94590000
C      -44.62280000     -36.67200000     -72.45990000
S      -48.03950000     -35.12440000     -74.41740000
S      -45.50610000     -37.08980000     -73.88600000
H      -43.81150000     -37.35030000     -72.12870000
