40
Properties=species:S:1:pos:R:3 #=T CELL(abcABC):=T 1.889726e+02=T 90.00000=T Traj:=T positionsangstrom=T Step:=T 0=T Bead:=T pbc="F F F"
C      -42.29010000     -32.84510000     -69.46580000
C      -43.44770000     -32.44320000     -68.80640000
C      -44.14900000     -31.30860000     -69.25060000
C      -43.61170000     -30.60470000     -70.37060000
C      -42.39430000     -30.98640000     -70.97810000
C      -41.64220000     -32.07550000     -70.39980000
H      -41.85400000     -33.79820000     -69.07780000
H      -45.00330000     -30.96710000     -68.66810000
H      -41.94280000     -30.30260000     -71.70630000
H      -40.71870000     -32.50620000     -70.71860000
C      -44.34620000     -29.31790000     -70.81950000
H      -43.91460000     -28.86560000     -71.70620000
H      -44.18720000     -28.55420000     -69.99850000
C      -44.06580000     -33.28400000     -67.69800000
H      -43.59980000     -33.11010000     -66.74240000
H      -45.04540000     -32.90220000     -67.56180000
S      -46.18450000     -29.58430000     -70.98060000
S      -43.96300000     -35.12450000     -68.02100000
C      -46.28770000     -31.05280000     -72.07060000
H      -46.96700000     -30.80490000     -72.84640000
H      -45.31650000     -31.20620000     -72.40300000
C      -45.12870000     -35.40880000     -69.37590000
H      -46.16710000     -35.08650000     -69.17120000
H      -45.22240000     -36.53840000     -69.48000000
C      -44.58120000     -34.88060000     -70.70690000
H      -44.65610000     -33.83690000     -70.58380000
H      -43.50160000     -34.99960000     -70.75570000
C      -46.92530000     -32.35620000     -71.44020000
H      -47.89050000     -32.03180000     -71.03600000
H      -46.30510000     -32.76590000     -70.63730000
C      -47.21170000     -33.41950000     -72.48750000
C      -48.17900000     -33.26300000     -73.44520000
C      -46.42950000     -34.64030000     -72.71240000
H      -48.92300000     -32.52400000     -73.38170000
C      -46.93050000     -35.38620000     -73.74520000
C      -45.31450000     -35.26080000     -71.99100000
C      -44.96680000     -36.49580000     -72.60670000
S      -48.26600000     -34.57490000     -74.57630000
S      -45.98860000     -36.83350000     -73.95300000
H      -44.23810000     -37.24750000     -72.33560000
