40
Properties=species:S:1:pos:R:3 #=T CELL(abcABC):=T 1.889726e+02=T 90.00000=T Traj:=T positionsangstrom=T Step:=T 0=T Bead:=T pbc="F F F"
C      -46.41670000     -31.24110000     -73.92990000
C      -47.53530000     -32.05560000     -73.59710000
C      -47.46500000     -33.46230000     -73.87290000
C      -46.34770000     -33.96930000     -74.61310000
C      -45.34450000     -33.11330000     -75.02850000
C      -45.44990000     -31.71450000     -74.85440000
H      -46.43570000     -30.18330000     -73.86990000
H      -48.16640000     -34.09250000     -73.34200000
H      -44.48630000     -33.38720000     -75.61760000
H      -44.61360000     -31.10580000     -75.29530000
C      -46.28860000     -35.43240000     -74.74030000
H      -45.42130000     -35.73410000     -75.26200000
H      -47.25770000     -35.86980000     -75.18480000
C      -48.85450000     -31.67070000     -72.85300000
H      -49.10270000     -30.65920000     -73.11100000
H      -49.63710000     -32.31180000     -73.19870000
S      -46.16440000     -36.30600000     -73.06920000
S      -48.84940000     -31.87180000     -71.04750000
C      -44.77340000     -35.51000000     -72.18850000
H      -43.95640000     -35.87350000     -72.71910000
H      -44.77540000     -34.44360000     -72.33260000
C      -47.11990000     -31.53810000     -70.42070000
H      -47.22260000     -31.02300000     -69.48710000
H      -46.56960000     -30.97120000     -71.16310000
C      -46.37840000     -32.84580000     -70.16280000
H      -46.93640000     -33.48890000     -69.47600000
H      -46.21830000     -33.51930000     -71.02010000
C      -44.70830000     -35.87080000     -70.67260000
H      -44.64420000     -36.95010000     -70.46700000
H      -45.65930000     -35.78620000     -70.11600000
C      -43.68220000     -35.01030000     -69.87980000
C      -42.39830000     -35.44840000     -69.61640000
C      -43.95030000     -33.61040000     -69.38240000
H      -41.94190000     -36.44530000     -69.64810000
C      -42.78160000     -33.09410000     -68.81060000
C      -44.98290000     -32.61610000     -69.59340000
C      -44.68280000     -31.43700000     -68.96430000
S      -41.46130000     -34.28640000     -68.56790000
S      -42.98960000     -31.47610000     -68.31280000
H      -45.32680000     -30.52360000     -68.87030000
