40
Properties=species:S:1:pos:R:3 #=T CELL(abcABC):=T 1.889726e+02=T 90.00000=T Traj:=T positionsangstrom=T Step:=T 0=T Bead:=T pbc="F F F"
C      -42.61620000     -32.07720000     -68.83190000
C      -44.01550000     -31.95480000     -68.78370000
C      -44.66670000     -31.03520000     -69.61870000
C      -43.97610000     -30.31000000     -70.61320000
C      -42.55530000     -30.41090000     -70.65550000
C      -41.93220000     -31.25960000     -69.68270000
H      -42.11740000     -32.81660000     -68.17900000
H      -45.75970000     -31.10260000     -69.56220000
H      -42.09010000     -29.71030000     -71.32020000
H      -40.86760000     -31.17950000     -69.78350000
C      -44.72530000     -29.38610000     -71.57940000
H      -44.38560000     -29.41950000     -72.61940000
H      -44.53250000     -28.37080000     -71.34040000
C      -44.64030000     -32.72230000     -67.67840000
H      -44.20290000     -32.53380000     -66.69110000
H      -45.76200000     -32.63160000     -67.58430000
S      -46.56770000     -29.58510000     -71.52240000
S      -44.46760000     -34.49690000     -67.71440000
C      -46.65770000     -31.24320000     -72.54480000
H      -47.38460000     -31.10040000     -73.34440000
H      -45.79250000     -31.25780000     -73.20460000
C      -45.28310000     -34.96070000     -69.30470000
H      -46.20190000     -34.47480000     -69.42330000
H      -45.53280000     -36.04780000     -69.23730000
C      -44.42780000     -34.69330000     -70.50160000
H      -44.44190000     -33.66710000     -70.71820000
H      -43.39720000     -34.95950000     -70.30840000
C      -46.96910000     -32.55210000     -71.77840000
H      -48.01750000     -32.43170000     -71.38380000
H      -46.30970000     -32.69510000     -70.79250000
C      -46.87680000     -33.79240000     -72.74250000
C      -47.79720000     -33.91260000     -73.78300000
C      -45.95380000     -34.93360000     -72.69110000
H      -48.41050000     -33.10680000     -74.12590000
C      -46.28980000     -35.90920000     -73.65960000
C      -44.90430000     -35.42740000     -71.82320000
C      -44.47370000     -36.66920000     -72.11580000
S      -47.53410000     -35.39310000     -74.76700000
S      -45.39790000     -37.41490000     -73.44880000
H      -43.84560000     -37.16810000     -71.47030000
