40
Properties=species:S:1:pos:R:3 #=T CELL(abcABC):=T 1.889726e+02=T 90.00000=T Traj:=T positionsangstrom=T Step:=T 0=T Bead:=T pbc="F F F"
C      -42.07130000     -32.93210000     -69.36630000
C      -43.25710000     -32.58170000     -68.68630000
C      -44.01910000     -31.51910000     -69.20820000
C      -43.53750000     -30.67720000     -70.24860000
C      -42.28570000     -30.97830000     -70.84390000
C      -41.67800000     -32.18860000     -70.48290000
H      -41.51140000     -33.92080000     -69.17350000
H      -45.05720000     -31.38090000     -68.80320000
H      -41.86770000     -30.31820000     -71.67450000
H      -40.69840000     -32.37930000     -70.92170000
C      -44.28300000     -29.49450000     -70.75040000
H      -43.85380000     -29.21270000     -71.69600000
H      -44.20540000     -28.59560000     -70.07190000
C      -43.76690000     -33.49840000     -67.62110000
H      -43.01210000     -33.45110000     -66.85400000
H      -44.80390000     -33.27640000     -67.22710000
S      -46.13160000     -29.60820000     -71.01030000
S      -43.79560000     -35.33950000     -68.10660000
C      -46.37690000     -31.11980000     -72.15150000
H      -46.88220000     -30.82060000     -73.16540000
H      -45.36560000     -31.42810000     -72.47810000
C      -45.18230000     -35.31200000     -69.40270000
H      -45.99090000     -34.66810000     -69.09600000
H      -45.46650000     -36.34560000     -69.40290000
C      -44.67930000     -34.86010000     -70.74170000
H      -44.71610000     -33.77650000     -70.85360000
H      -43.61520000     -35.25160000     -70.93640000
C      -46.99190000     -32.25680000     -71.40800000
H      -47.79730000     -31.99670000     -70.69090000
H      -46.30040000     -32.65090000     -70.69660000
C      -47.31820000     -33.32440000     -72.39810000
C      -48.26120000     -33.09790000     -73.36090000
C      -46.57700000     -34.57760000     -72.56780000
H      -48.76540000     -32.17290000     -73.40880000
C      -47.08050000     -35.26860000     -73.69110000
C      -45.53460000     -35.30750000     -71.91390000
C      -45.23020000     -36.54150000     -72.58370000
S      -48.24020000     -34.26960000     -74.64650000
S      -46.18110000     -36.68350000     -74.10570000
H      -44.52080000     -37.25230000     -72.13880000
