40
Properties=species:S:1:pos:R:3 #=T CELL(abcABC):=T 1.889726e+02=T 90.00000=T Traj:=T positionsangstrom=T Step:=T 0=T Bead:=T pbc="F F F"
C      -42.35700000     -32.16040000     -68.79920000
C      -43.71570000     -31.94500000     -68.51730000
C      -44.53460000     -31.22100000     -69.33200000
C      -43.97840000     -30.52920000     -70.45410000
C      -42.65180000     -30.81180000     -70.79960000
C      -41.85380000     -31.60570000     -69.94100000
H      -41.70890000     -32.69320000     -68.09930000
H      -45.61890000     -30.99920000     -69.26270000
H      -42.16610000     -30.23650000     -71.63830000
H      -40.77340000     -31.68640000     -70.26720000
C      -44.65650000     -29.47000000     -71.32210000
H      -44.20680000     -29.47530000     -72.29170000
H      -44.45260000     -28.41220000     -70.88380000
C      -44.32860000     -32.66530000     -67.38550000
H      -43.68980000     -32.46500000     -66.44150000
H      -45.27560000     -32.09150000     -67.09530000
S      -46.45040000     -29.68130000     -71.50400000
S      -44.41740000     -34.48500000     -67.74220000
C      -46.57550000     -31.20320000     -72.66340000
H      -47.50030000     -30.98250000     -73.19800000
H      -45.74640000     -31.34950000     -73.37680000
C      -45.30480000     -34.78280000     -69.43850000
H      -46.02670000     -33.99460000     -69.49360000
H      -45.76210000     -35.68950000     -69.20150000
C      -44.30850000     -34.83680000     -70.68370000
H      -43.80980000     -33.90050000     -70.87320000
H      -43.51820000     -35.56110000     -70.46100000
C      -46.60960000     -32.49070000     -71.84410000
H      -47.37840000     -32.57940000     -70.98380000
H      -45.60920000     -32.65380000     -71.43380000
C      -46.91350000     -33.67330000     -72.69440000
C      -47.97230000     -33.78320000     -73.59560000
C      -46.11090000     -34.89640000     -72.65830000
H      -48.77600000     -33.05040000     -73.83590000
C      -46.51990000     -35.77710000     -73.68620000
C      -44.91080000     -35.32150000     -72.00520000
C      -44.49840000     -36.51400000     -72.52180000
S      -48.01640000     -35.32260000     -74.46730000
S      -45.55070000     -37.22850000     -73.75710000
H      -43.59850000     -37.13090000     -72.22790000
