40
Properties=species:S:1:pos:R:3 #=T CELL(abcABC):=T 1.889726e+02=T 90.00000=T Traj:=T positionsangstrom=T Step:=T 0=T Bead:=T pbc="F F F"
C      -46.34040000     -32.39670000     -74.63910000
C      -47.29950000     -33.08790000     -73.75870000
C      -47.15960000     -34.46070000     -73.58650000
C      -46.00650000     -35.09370000     -74.11430000
C      -45.05250000     -34.39880000     -74.77820000
C      -45.18900000     -33.03870000     -75.02660000
H      -46.46880000     -31.27800000     -74.78070000
H      -47.86490000     -35.02920000     -72.98030000
H      -44.07580000     -34.77410000     -75.14970000
H      -44.34460000     -32.60690000     -75.58690000
C      -45.82140000     -36.59930000     -73.86570000
H      -45.00770000     -36.93340000     -74.45910000
H      -46.68210000     -37.14540000     -74.24080000
C      -48.55980000     -32.30520000     -73.39570000
H      -48.39050000     -31.33080000     -73.83880000
H      -49.41420000     -32.76060000     -73.87690000
S      -45.66150000     -36.99960000     -72.01020000
S      -49.11060000     -32.22730000     -71.57960000
C      -44.55350000     -35.68920000     -71.35840000
H      -43.50950000     -35.88410000     -71.58920000
H      -44.72720000     -34.73640000     -71.78690000
C      -47.48910000     -31.47990000     -70.97690000
H      -47.78660000     -30.67510000     -70.37200000
H      -46.98850000     -30.99140000     -71.82750000
C      -46.60200000     -32.47680000     -70.28100000
H      -47.19450000     -32.99730000     -69.55140000
H      -46.26500000     -33.18660000     -71.08060000
C      -44.69770000     -35.49950000     -69.81340000
H      -44.37590000     -36.38290000     -69.27860000
H      -45.71340000     -35.21810000     -69.58630000
C      -43.84920000     -34.33230000     -69.40380000
C      -42.52040000     -34.55370000     -69.00740000
C      -44.16580000     -32.87770000     -69.56090000
H      -41.86250000     -35.41650000     -68.97730000
C      -43.01710000     -32.10870000     -69.25410000
C      -45.31000000     -31.91920000     -69.76590000
C      -44.94310000     -30.62600000     -69.70210000
S      -41.65840000     -32.99490000     -68.75320000
S      -43.31880000     -30.33220000     -69.03190000
H      -45.59900000     -29.75720000     -69.84200000
