40
Properties=species:S:1:pos:R:3 #=T CELL(abcABC):=T 1.889726e+02=T 90.00000=T Traj:=T positionsangstrom=T Step:=T 0=T Bead:=T pbc="F F F"
C      -46.24700000     -32.24120000     -74.79160000
C      -47.31040000     -32.90530000     -74.15820000
C      -47.25540000     -34.26370000     -73.85110000
C      -46.11060000     -35.00300000     -74.16960000
C      -45.07480000     -34.34610000     -74.93910000
C      -45.15950000     -32.95830000     -75.21490000
H      -46.34460000     -31.16460000     -74.91780000
H      -48.12350000     -34.65870000     -73.25730000
H      -44.27300000     -34.97280000     -75.44300000
H      -44.32020000     -32.43930000     -75.61790000
C      -46.02320000     -36.49320000     -73.87710000
H      -45.18180000     -36.83880000     -74.49000000
H      -46.90670000     -37.04580000     -74.22270000
C      -48.55470000     -32.10350000     -73.72260000
H      -48.38570000     -31.07860000     -74.03870000
H      -49.49160000     -32.47910000     -74.23540000
S      -45.76950000     -36.90730000     -72.10490000
S      -48.83900000     -32.19430000     -71.84880000
C      -44.42270000     -35.79470000     -71.32270000
H      -43.39150000     -36.25660000     -71.37830000
H      -44.28250000     -34.83130000     -71.89550000
C      -47.21950000     -31.60930000     -71.11500000
H      -47.53420000     -31.00270000     -70.29930000
H      -46.82300000     -31.00150000     -71.96730000
C      -46.29110000     -32.64440000     -70.68090000
H      -46.85820000     -33.32370000     -70.02920000
H      -45.94480000     -33.14410000     -71.63670000
C      -44.79480000     -35.35860000     -69.89380000
H      -44.63090000     -36.30080000     -69.27310000
H      -45.87590000     -35.09910000     -69.85710000
C      -43.84140000     -34.31040000     -69.40540000
C      -42.66110000     -34.60090000     -68.74420000
C      -44.01950000     -32.87340000     -69.42780000
H      -42.46340000     -35.61500000     -68.46620000
C      -43.03870000     -32.14540000     -68.75680000
C      -45.11460000     -32.09500000     -69.86050000
C      -45.08190000     -30.79140000     -69.41800000
S      -41.81550000     -33.19270000     -68.24830000
S      -43.44790000     -30.40760000     -68.71450000
H      -45.77810000     -29.98380000     -69.71270000
