40
Properties=species:S:1:pos:R:3 #=T CELL(abcABC):=T 1.889726e+02=T 90.00000=T Traj:=T positionsangstrom=T Step:=T 0=T Bead:=T pbc="F F F"
C      -46.24380000     -32.18320000     -74.76900000
C      -47.35210000     -32.80000000     -74.20840000
C      -47.27490000     -34.15960000     -73.77710000
C      -46.20690000     -34.95420000     -74.03650000
C      -45.09530000     -34.32460000     -74.75450000
C      -45.06020000     -32.98040000     -74.95890000
H      -46.21510000     -31.08780000     -74.94190000
H      -48.14400000     -34.46630000     -73.24760000
H      -44.28250000     -35.06040000     -74.88410000
H      -44.15410000     -32.56060000     -75.45120000
C      -46.08040000     -36.40690000     -73.79290000
H      -45.39480000     -36.88210000     -74.48360000
H      -47.03520000     -36.82800000     -73.91070000
C      -48.66420000     -32.08260000     -73.82120000
H      -48.56340000     -31.02650000     -74.09530000
H      -49.63850000     -32.43570000     -74.19300000
S      -45.62200000     -36.76760000     -72.06880000
S      -48.92240000     -32.11980000     -71.99230000
C      -44.48140000     -35.48750000     -71.51900000
H      -43.48690000     -35.74310000     -71.77300000
H      -44.77210000     -34.53700000     -71.90250000
C      -47.31130000     -31.42970000     -71.27280000
H      -47.66490000     -30.64650000     -70.54970000
H      -46.80150000     -30.91050000     -72.09700000
C      -46.48530000     -32.52970000     -70.73290000
H      -47.10950000     -33.05380000     -69.94310000
H      -46.44740000     -33.37220000     -71.50640000
C      -44.53970000     -35.50490000     -69.99810000
H      -44.17260000     -36.44450000     -69.68770000
H      -45.52140000     -35.41610000     -69.54620000
C      -43.77300000     -34.47210000     -69.29150000
C      -42.58790000     -34.71000000     -68.60230000
C      -44.10810000     -33.07600000     -69.36140000
H      -42.16530000     -35.68300000     -68.55330000
C      -43.13600000     -32.34140000     -68.68170000
C      -45.08960000     -32.22900000     -70.02620000
C      -44.84350000     -30.90910000     -69.80820000
S      -41.84700000     -33.25690000     -68.05610000
S      -43.43020000     -30.57460000     -68.76830000
H      -45.30190000     -30.02800000     -70.21110000
