40
Properties=species:S:1:pos:R:3 #=T CELL(abcABC):=T 1.889726e+02=T 90.00000=T Traj:=T positionsangstrom=T Step:=T 0=T Bead:=T pbc="F F F"
C      -46.03180000     -32.21390000     -74.36270000
C      -47.25190000     -32.78830000     -74.00580000
C      -47.27730000     -34.18630000     -73.88450000
C      -46.17940000     -34.95050000     -74.26730000
C      -45.05540000     -34.38740000     -74.87820000
C      -44.99070000     -32.98910000     -74.91670000
H      -45.91110000     -31.17700000     -74.34650000
H      -48.13160000     -34.85820000     -73.58960000
H      -44.22150000     -35.04070000     -75.24000000
H      -44.08660000     -32.55260000     -75.28250000
C      -46.22130000     -36.44380000     -74.01080000
H      -45.44310000     -36.84940000     -74.59350000
H      -47.10500000     -36.99080000     -74.20850000
C      -48.37170000     -31.87150000     -73.68240000
H      -48.14120000     -30.85590000     -73.98020000
H      -49.28400000     -32.24230000     -74.19170000
S      -45.75220000     -36.85310000     -72.25460000
S      -48.85070000     -31.97060000     -71.85530000
C      -44.48100000     -35.66100000     -71.53980000
H      -43.52860000     -36.18300000     -71.72780000
H      -44.38500000     -34.80490000     -72.17590000
C      -47.35420000     -31.32200000     -70.98610000
H      -47.74650000     -30.70320000     -70.17350000
H      -46.93910000     -30.71400000     -71.79630000
C      -46.45320000     -32.60060000     -70.63160000
H      -47.02850000     -33.19670000     -69.87070000
H      -46.35570000     -33.12150000     -71.61060000
C      -44.80180000     -35.45790000     -70.01140000
H      -44.80220000     -36.45880000     -69.59230000
H      -45.73520000     -34.95460000     -69.76240000
C      -43.87830000     -34.48760000     -69.36120000
C      -42.71160000     -34.75520000     -68.65520000
C      -44.09740000     -33.06740000     -69.48810000
H      -42.18140000     -35.72380000     -68.46770000
C      -43.07390000     -32.33470000     -68.89200000
C      -45.12640000     -32.13320000     -70.01900000
C      -44.85030000     -30.81050000     -69.77770000
S      -41.92360000     -33.29320000     -68.02600000
S      -43.35190000     -30.63900000     -68.77660000
H      -45.53750000     -30.00610000     -70.01110000
