40
Properties=species:S:1:pos:R:3 #=T CELL(abcABC):=T 1.889726e+02=T 90.00000=T Traj:=T positionsangstrom=T Step:=T 0=T Bead:=T pbc="F F F"
C      -46.63210000     -30.15710000     -73.94990000
C      -46.74990000     -31.55830000     -74.10570000
C      -45.56540000     -32.30550000     -74.08860000
C      -44.23230000     -31.80210000     -73.79880000
C      -44.17960000     -30.35440000     -73.56600000
C      -45.34730000     -29.59780000     -73.68990000
H      -47.42160000     -29.58420000     -73.89410000
H      -45.62810000     -33.34750000     -74.39180000
H      -43.26490000     -29.91340000     -73.23850000
H      -45.28200000     -28.55230000     -73.37940000
C      -43.05350000     -32.64060000     -73.90940000
H      -42.19870000     -32.05890000     -74.20390000
H      -43.14350000     -33.32800000     -74.78570000
C      -47.98380000     -32.28180000     -74.41250000
H      -48.62920000     -31.71530000     -75.03680000
H      -47.75320000     -33.21330000     -74.94990000
S      -42.73230000     -33.69120000     -72.43010000
S      -48.89050000     -32.75560000     -72.92440000
C      -42.60050000     -32.40460000     -71.14480000
H      -41.75170000     -32.74390000     -70.57250000
H      -42.30490000     -31.43220000     -71.67380000
C      -47.85550000     -34.12460000     -72.16120000
H      -47.54880000     -34.80050000     -73.02300000
H      -48.40410000     -34.86110000     -71.55640000
C      -46.62720000     -33.70580000     -71.37750000
H      -45.77000000     -33.48120000     -72.04870000
H      -46.89950000     -32.65410000     -71.04280000
C      -43.91530000     -32.14420000     -70.27030000
H      -44.87830000     -32.14990000     -70.86160000
H      -43.83410000     -31.22320000     -69.76310000
C      -44.13560000     -33.29070000     -69.31640000
C      -43.24610000     -33.58040000     -68.30340000
C      -45.15300000     -34.34380000     -69.35470000
H      -42.44350000     -32.87490000     -67.99080000
C      -45.01530000     -35.29240000     -68.39260000
C      -46.24020000     -34.61570000     -70.25400000
C      -46.91790000     -35.75750000     -69.95450000
S      -43.58170000     -35.02480000     -67.35490000
S      -46.07500000     -36.66500000     -68.62300000
H      -47.68440000     -36.31560000     -70.58220000
