40
Properties=species:S:1:pos:R:3 #=T CELL(abcABC):=T 1.889726e+02=T 90.00000=T Traj:=T positionsangstrom=T Step:=T 0=T Bead:=T pbc="F F F"
C      -43.01380000     -30.46760000     -68.08230000
C      -44.22180000     -30.99680000     -68.55540000
C      -44.63960000     -30.75040000     -69.83560000
C      -43.96140000     -29.93820000     -70.69640000
C      -42.73200000     -29.41610000     -70.25340000
C      -42.33620000     -29.63490000     -68.95880000
H      -42.72960000     -30.44440000     -67.07800000
H      -45.46670000     -31.29370000     -70.19950000
H      -42.19900000     -28.76970000     -70.88330000
H      -41.45830000     -29.01600000     -68.74930000
C      -44.52570000     -29.48500000     -72.00320000
H      -43.72130000     -29.44760000     -72.80190000
H      -44.92000000     -28.36940000     -71.88000000
C      -45.08740000     -31.92320000     -67.66270000
H      -44.96210000     -31.65350000     -66.59550000
H      -46.14360000     -31.93680000     -67.95970000
S      -46.03330000     -30.36480000     -72.51460000
S      -44.56150000     -33.65020000     -67.72390000
C      -45.59800000     -31.96800000     -73.22140000
H      -45.29070000     -31.98070000     -74.23490000
H      -44.85020000     -32.41480000     -72.67610000
C      -45.58660000     -34.50970000     -68.93490000
H      -46.62230000     -34.38840000     -68.63810000
H      -45.49840000     -35.58030000     -68.69450000
C      -45.25680000     -34.20370000     -70.45530000
H      -45.70140000     -33.26670000     -70.73600000
H      -44.16310000     -34.10000000     -70.68120000
C      -46.85060000     -32.87500000     -73.18090000
H      -47.58040000     -32.34970000     -73.85920000
H      -47.31710000     -32.70310000     -72.21840000
C      -46.71910000     -34.33700000     -73.49390000
C      -47.13460000     -34.87140000     -74.70970000
C      -46.11070000     -35.34660000     -72.64370000
H      -47.60720000     -34.40310000     -75.59760000
C      -46.20990000     -36.59490000     -73.25670000
C      -45.64960000     -35.40630000     -71.28230000
C      -45.37370000     -36.71980000     -70.98360000
S      -46.89060000     -36.59010000     -74.86270000
S      -45.57440000     -37.88530000     -72.34150000
H      -44.91650000     -36.98580000     -70.04300000
