40
Properties=species:S:1:pos:R:3 #=T CELL(abcABC):=T 1.889726e+02=T 90.00000=T Traj:=T positionsangstrom=T Step:=T 0=T Bead:=T pbc="F F F"
C      -48.20190000     -33.97520000     -75.09180000
C      -47.06240000     -33.29390000     -74.64240000
C      -45.95120000     -33.99080000     -74.26570000
C      -45.87220000     -35.36160000     -74.37330000
C      -46.98050000     -36.03860000     -74.85670000
C      -48.14150000     -35.35120000     -75.16850000
H      -49.09500000     -33.46960000     -75.40530000
H      -45.06940000     -33.43020000     -73.92950000
H      -46.97840000     -37.17460000     -74.80930000
H      -48.95510000     -35.97210000     -75.56540000
C      -44.59060000     -36.07100000     -73.95130000
H      -43.67470000     -35.42080000     -74.06180000
H      -44.49090000     -36.97030000     -74.51690000
C      -47.29130000     -31.82990000     -74.31590000
H      -46.78220000     -31.02950000     -74.89600000
H      -48.30370000     -31.51040000     -74.49970000
S      -44.51530000     -36.69570000     -72.24920000
S      -47.03920000     -31.72150000     -72.47030000
C      -44.19770000     -35.18500000     -71.22880000
H      -43.51270000     -35.49860000     -70.43690000
H      -43.53850000     -34.53580000     -71.88670000
C      -45.62560000     -30.62110000     -72.12450000
H      -45.88930000     -29.93050000     -71.33300000
H      -45.37140000     -30.04540000     -73.03750000
C      -44.34920000     -31.42520000     -71.68900000
H      -44.25160000     -32.43740000     -72.13050000
H      -43.53590000     -30.77100000     -72.10220000
C      -45.47390000     -34.50080000     -70.72670000
H      -46.19260000     -35.28170000     -70.42300000
H      -45.76920000     -33.85810000     -71.49150000
C      -45.07200000     -33.86790000     -69.42330000
C      -45.21780000     -34.50930000     -68.23570000
C      -44.30280000     -32.63940000     -69.31800000
H      -45.78550000     -35.43830000     -67.98470000
C      -44.09790000     -32.30700000     -67.95860000
C      -44.00180000     -31.57120000     -70.17820000
C      -43.57600000     -30.47340000     -69.47430000
S      -44.46320000     -33.56420000     -66.85400000
S      -43.38170000     -30.69820000     -67.72720000
H      -43.17330000     -29.51440000     -69.86330000
