40
Properties=species:S:1:pos:R:3 #=T CELL(abcABC):=T 1.889726e+02=T 90.00000=T Traj:=T positionsangstrom=T Step:=T 0=T Bead:=T pbc="F F F"
C      -46.38380000     -32.31420000     -74.21300000
C      -47.51430000     -33.06540000     -73.85740000
C      -47.43010000     -34.45700000     -73.93330000
C      -46.18220000     -35.05160000     -74.09920000
C      -45.00570000     -34.25630000     -74.24010000
C      -45.12920000     -32.91200000     -74.33240000
H      -46.39070000     -31.28720000     -73.98440000
H      -48.32490000     -35.05620000     -73.67580000
H      -44.06900000     -34.77660000     -74.22890000
H      -44.30340000     -32.18160000     -74.51720000
C      -46.05690000     -36.51810000     -73.76930000
H      -45.36070000     -37.16380000     -74.28530000
H      -46.96560000     -37.08360000     -73.95890000
C      -48.82360000     -32.38460000     -73.44940000
H      -48.89580000     -31.39410000     -73.78330000
H      -49.56090000     -32.97950000     -73.94560000
S      -45.82730000     -36.83570000     -71.93660000
S      -49.05680000     -32.42330000     -71.62250000
C      -44.59620000     -35.63990000     -71.30920000
H      -43.68880000     -35.89050000     -71.78470000
H      -44.90720000     -34.63970000     -71.61090000
C      -47.46420000     -31.66880000     -71.10270000
H      -47.73960000     -30.79230000     -70.41670000
H      -46.93020000     -31.23920000     -71.91690000
C      -46.49930000     -32.68120000     -70.46680000
H      -47.09450000     -33.27200000     -69.70610000
H      -46.21700000     -33.42400000     -71.14220000
C      -44.47280000     -35.53220000     -69.79550000
H      -44.01070000     -36.38080000     -69.38890000
H      -45.43320000     -35.54050000     -69.34290000
C      -43.65790000     -34.32930000     -69.44870000
C      -42.35250000     -34.44790000     -69.00400000
C      -44.04800000     -32.83390000     -69.54990000
H      -41.77340000     -35.35730000     -68.83470000
C      -42.94430000     -32.03490000     -69.21040000
C      -45.20030000     -32.08250000     -69.92930000
C      -44.94330000     -30.74250000     -69.95360000
S      -41.50870000     -32.96340000     -68.76710000
S      -43.27740000     -30.28830000     -69.35370000
H      -45.59960000     -29.91610000     -70.01530000
