40
Properties=species:S:1:pos:R:3 #=T CELL(abcABC):=T 1.889726e+02=T 90.00000=T Traj:=T positionsangstrom=T Step:=T 0=T Bead:=T pbc="F F F"
C      -48.25490000     -34.10670000     -75.01010000
C      -47.06590000     -33.40650000     -74.60750000
C      -45.90000000     -34.13230000     -74.36890000
C      -45.84110000     -35.52360000     -74.52130000
C      -47.00900000     -36.16510000     -74.95830000
C      -48.20960000     -35.45640000     -75.21390000
H      -49.18090000     -33.49370000     -75.12680000
H      -45.03530000     -33.70140000     -73.94290000
H      -47.01610000     -37.28370000     -75.09670000
H      -49.08190000     -36.04090000     -75.45610000
C      -44.62290000     -36.25210000     -74.03260000
H      -43.75950000     -35.54900000     -74.11910000
H      -44.29240000     -37.08490000     -74.69410000
C      -47.02510000     -31.93910000     -74.23630000
H      -46.00400000     -31.62100000     -74.49050000
H      -47.90160000     -31.46780000     -74.56910000
S      -44.84410000     -36.84440000     -72.26130000
S      -47.02480000     -31.74490000     -72.29820000
C      -44.29540000     -35.42660000     -71.20670000
H      -43.85840000     -35.86220000     -70.38220000
H      -43.65680000     -34.70320000     -71.69560000
C      -45.48940000     -30.64350000     -72.19880000
H      -45.74120000     -29.74670000     -71.60580000
H      -45.36200000     -30.12770000     -73.17890000
C      -44.26760000     -31.44000000     -71.69680000
H      -44.36240000     -32.40410000     -72.00720000
H      -43.29200000     -31.00250000     -72.07490000
C      -45.45370000     -34.56630000     -70.65620000
H      -46.31020000     -35.23280000     -70.31920000
H      -45.94220000     -33.99950000     -71.43720000
C      -45.01670000     -33.78540000     -69.40100000
C      -45.08090000     -34.34570000     -68.15000000
C      -44.35500000     -32.42960000     -69.28420000
H      -45.49700000     -35.32330000     -67.84320000
C      -44.12630000     -32.12510000     -67.93270000
C      -44.05810000     -31.38510000     -70.18640000
C      -43.46540000     -30.27140000     -69.61910000
S      -44.44240000     -33.40400000     -66.81770000
S      -43.29030000     -30.48920000     -67.83540000
H      -43.23390000     -29.28710000     -70.06560000
