40
Properties=species:S:1:pos:R:3 #=T CELL(abcABC):=T 1.889726e+02=T 90.00000=T Traj:=T positionsangstrom=T Step:=T 0=T Bead:=T pbc="F F F"
C      -49.10300000     -32.89530000     -70.76110000
C      -48.39820000     -31.79840000     -71.23350000
C      -47.74330000     -31.83810000     -72.49470000
C      -47.81270000     -32.99230000     -73.24500000
C      -48.64880000     -34.04060000     -72.80410000
C      -49.28780000     -33.98160000     -71.61110000
H      -49.54820000     -32.95510000     -69.78490000
H      -47.10980000     -31.03750000     -72.88310000
H      -48.77260000     -34.98170000     -73.40310000
H      -49.90230000     -34.81920000     -71.28680000
C      -47.06730000     -32.93290000     -74.57300000
H      -46.42000000     -32.06660000     -74.55560000
H      -47.67000000     -32.82620000     -75.44980000
C      -48.19440000     -30.61430000     -70.31980000
H      -48.86150000     -29.78700000     -70.55710000
H      -48.42470000     -30.90990000     -69.33270000
S      -45.96050000     -34.41310000     -74.92350000
S      -46.59550000     -29.76240000     -70.38610000
C      -45.12400000     -34.75760000     -73.32340000
H      -45.77010000     -34.48160000     -72.48470000
H      -44.99080000     -35.85870000     -73.26780000
C      -45.17130000     -30.84480000     -69.94570000
H      -44.97130000     -30.90560000     -68.82760000
H      -44.37930000     -30.32990000     -70.58530000
C      -45.26400000     -32.23700000     -70.60470000
H      -46.27450000     -32.77420000     -70.34780000
H      -45.12810000     -32.07800000     -71.66530000
C      -43.82960000     -34.05560000     -73.18400000
H      -44.06280000     -32.95720000     -73.14890000
H      -43.21160000     -34.22690000     -74.07220000
C      -43.04840000     -34.54970000     -71.96410000
C      -42.05750000     -35.53490000     -71.93980000
C      -43.28710000     -34.08750000     -70.58970000
H      -41.85090000     -36.17680000     -72.83140000
C      -42.64560000     -34.86220000     -69.65720000
C      -44.19490000     -33.16060000     -69.94430000
C      -44.24180000     -33.33700000     -68.58350000
S      -41.49060000     -36.01900000     -70.32010000
S      -43.06190000     -34.49200000     -68.01190000
H      -44.96820000     -32.79710000     -67.86620000
