40
Properties=species:S:1:pos:R:3 #=T CELL(abcABC):=T 1.889726e+02=T 90.00000=T Traj:=T positionsangstrom=T Step:=T 0=T Bead:=T pbc="F F F"
C      -46.39680000     -32.31690000     -74.31950000
C      -47.51960000     -33.09680000     -73.84220000
C      -47.35440000     -34.45990000     -73.65790000
C      -46.15980000     -35.09680000     -73.96270000
C      -45.08180000     -34.30100000     -74.47530000
C      -45.20550000     -32.95860000     -74.64020000
H      -46.57140000     -31.25880000     -74.68130000
H      -48.21190000     -35.01210000     -73.26940000
H      -44.08190000     -34.77990000     -74.74580000
H      -44.32020000     -32.40460000     -74.94440000
C      -45.93930000     -36.57690000     -73.70890000
H      -44.96790000     -36.88230000     -74.12860000
H      -46.78830000     -37.16110000     -74.12090000
C      -48.75040000     -32.43610000     -73.54320000
H      -48.88390000     -31.39900000     -74.01560000
H      -49.64640000     -32.93610000     -73.85100000
S      -45.64400000     -37.00000000     -71.90720000
S      -48.95530000     -32.31120000     -71.73080000
C      -44.73770000     -35.49020000     -71.48060000
H      -43.69130000     -35.55760000     -71.90230000
H      -45.15250000     -34.58320000     -71.96820000
C      -47.50170000     -31.57430000     -70.86950000
H      -47.92440000     -30.94800000     -70.09310000
H      -46.96550000     -30.91210000     -71.59110000
C      -46.63260000     -32.60390000     -70.16790000
H      -47.06460000     -33.22130000     -69.36060000
H      -46.40290000     -33.36270000     -70.93100000
C      -44.73040000     -35.29770000     -69.95550000
H      -44.57260000     -36.27940000     -69.40140000
H      -45.73330000     -34.87340000     -69.70320000
C      -43.70170000     -34.32810000     -69.52950000
C      -42.36820000     -34.55760000     -69.16490000
C      -44.06840000     -32.84840000     -69.42690000
H      -41.68690000     -35.34990000     -68.91610000
C      -42.92020000     -32.06710000     -69.20540000
C      -45.26950000     -32.04560000     -69.73300000
C      -44.94510000     -30.72780000     -69.83810000
S      -41.52950000     -32.97180000     -68.74980000
S      -43.29800000     -30.34040000     -69.30290000
H      -45.44520000     -29.88010000     -70.27830000
