40
Properties=species:S:1:pos:R:3 #=T CELL(abcABC):=T 1.889726e+02=T 90.00000=T Traj:=T positionsangstrom=T Step:=T 0=T Bead:=T pbc="F F F"
C      -43.12220000     -29.85390000     -68.81810000
C      -44.23810000     -30.62940000     -69.30650000
C      -44.60420000     -30.46100000     -70.58980000
C      -43.84480000     -29.81900000     -71.56110000
C      -42.78240000     -29.04020000     -71.09760000
C      -42.38990000     -29.06480000     -69.69340000
H      -42.73850000     -29.98830000     -67.79180000
H      -45.38070000     -31.09760000     -70.94890000
H      -42.23610000     -28.33660000     -71.78960000
H      -41.56530000     -28.32720000     -69.40830000
C      -44.11420000     -29.90600000     -72.99240000
H      -43.58770000     -30.72180000     -73.44530000
H      -43.90290000     -29.02080000     -73.58450000
C      -44.92920000     -31.48710000     -68.27190000
H      -44.97170000     -31.03540000     -67.32300000
H      -45.97870000     -31.68150000     -68.50730000
S      -45.87860000     -30.39300000     -73.35990000
S      -44.06720000     -33.10890000     -67.91440000
C      -45.79470000     -32.24850000     -73.69460000
H      -46.17680000     -32.46440000     -74.64120000
H      -44.72530000     -32.56050000     -73.76860000
C      -44.42550000     -34.20010000     -69.45130000
H      -43.85890000     -35.11410000     -69.41680000
H      -44.15070000     -33.52610000     -70.30880000
C      -45.90590000     -34.61500000     -69.45440000
H      -46.13840000     -34.95050000     -68.45950000
H      -46.49040000     -33.73500000     -69.59380000
C      -46.38860000     -33.12640000     -72.52350000
H      -47.36330000     -32.70800000     -72.26400000
H      -45.77670000     -32.95520000     -71.61280000
C      -46.43060000     -34.52780000     -72.89370000
C      -46.55880000     -35.02620000     -74.17690000
C      -46.36150000     -35.60380000     -71.88810000
H      -46.50190000     -34.51860000     -75.14570000
C      -46.53160000     -36.89160000     -72.51120000
C      -46.14140000     -35.73700000     -70.45140000
C      -46.16080000     -37.08490000     -70.03290000
S      -46.76030000     -36.79040000     -74.22090000
S      -46.56390000     -38.21080000     -71.38690000
H      -46.29310000     -37.40860000     -69.06430000
