40
Properties=species:S:1:pos:R:3 #=T CELL(abcABC):=T 1.889726e+02=T 90.00000=T Traj:=T positionsangstrom=T Step:=T 0=T Bead:=T pbc="F F F"
C      -46.72440000     -31.92500000     -74.92420000
C      -45.58920000     -31.68490000     -74.06480000
C      -44.64470000     -32.73490000     -73.97430000
C      -44.74440000     -33.97760000     -74.62600000
C      -45.92290000     -34.27900000     -75.33260000
C      -46.87930000     -33.21920000     -75.51800000
H      -47.41000000     -31.13450000     -74.96770000
H      -43.74870000     -32.52120000     -73.39410000
H      -46.03150000     -35.29330000     -75.73020000
H      -47.70980000     -33.43950000     -76.17540000
C      -43.66750000     -35.03680000     -74.58560000
H      -42.69220000     -34.63900000     -74.28480000
H      -43.53580000     -35.47500000     -75.57180000
C      -45.38530000     -30.31200000     -73.51460000
H      -44.48270000     -30.20770000     -72.89050000
H      -45.32300000     -29.50050000     -74.27970000
S      -44.11370000     -36.51500000     -73.61560000
S      -46.93550000     -29.83240000     -72.54130000
C      -43.87650000     -36.06960000     -71.91760000
H      -44.02450000     -36.99790000     -71.47540000
H      -42.87530000     -35.83710000     -71.56630000
C      -46.67730000     -30.51210000     -70.83450000
H      -47.64630000     -30.29050000     -70.37290000
H      -45.91580000     -29.91710000     -70.34080000
C      -46.26060000     -31.97790000     -70.78780000
H      -46.96980000     -32.51790000     -71.40670000
H      -45.33430000     -32.19420000     -71.31110000
C      -44.81120000     -34.99790000     -71.31710000
H      -45.88000000     -35.01150000     -71.76660000
H      -44.42010000     -33.99060000     -71.60290000
C      -44.83550000     -34.92680000     -69.81040000
C      -44.33160000     -35.89460000     -69.00060000
C      -45.17690000     -33.71100000     -69.15880000
H      -44.15290000     -36.84750000     -69.41960000
C      -44.92030000     -33.85210000     -67.74660000
C      -45.93630000     -32.46540000     -69.36430000
C      -46.06080000     -31.68940000     -68.25450000
S      -44.29590000     -35.38070000     -67.27890000
S      -45.56570000     -32.53650000     -66.83430000
H      -46.57330000     -30.69180000     -68.27510000
