40
Properties=species:S:1:pos:R:3 #=T CELL(abcABC):=T 1.889726e+02=T 90.00000=T Traj:=T positionsangstrom=T Step:=T 0=T Bead:=T pbc="F F F"
C      -48.60500000     -34.99760000     -70.34330000
C      -47.52810000     -35.86880000     -70.58280000
C      -46.48610000     -35.94730000     -69.66270000
C      -46.55870000     -35.20840000     -68.47510000
C      -47.60190000     -34.26350000     -68.24190000
C      -48.59260000     -34.13560000     -69.24840000
H      -49.47440000     -35.01790000     -70.91010000
H      -45.61850000     -36.43360000     -69.98100000
H      -47.72440000     -33.79450000     -67.28820000
H      -49.47520000     -33.42220000     -69.11540000
C      -45.46380000     -35.29870000     -67.45170000
H      -45.26170000     -36.25980000     -67.04400000
H      -45.64780000     -34.57690000     -66.60120000
C      -47.38110000     -36.67810000     -71.92730000
H      -47.36620000     -37.70650000     -71.67940000
H      -48.11960000     -36.39610000     -72.64490000
S      -43.85770000     -34.91900000     -68.28540000
S      -45.73120000     -36.34940000     -72.67280000
C      -44.04080000     -33.19740000     -68.93830000
H      -44.81510000     -32.70370000     -68.29780000
H      -43.10470000     -32.69110000     -68.76300000
C      -45.98420000     -34.54200000     -73.02580000
H      -46.28260000     -33.90740000     -72.21830000
H      -46.81040000     -34.40940000     -73.72520000
C      -44.64410000     -34.13630000     -73.77160000
H      -43.87060000     -34.64630000     -73.25670000
H      -44.60550000     -34.63450000     -74.80250000
C      -44.18620000     -33.19330000     -70.52070000
H      -45.03130000     -33.85820000     -70.74270000
H      -43.30380000     -33.87200000     -70.90100000
C      -44.20970000     -31.85680000     -71.18520000
C      -44.26220000     -30.68190000     -70.53310000
C      -44.28780000     -31.75990000     -72.63560000
H      -44.20260000     -30.57090000     -69.39840000
C      -44.19760000     -30.44600000     -73.04160000
C      -44.44960000     -32.62850000     -73.81670000
C      -44.48400000     -31.94700000     -74.98540000
S      -44.26270000     -29.31750000     -71.68030000
S      -44.28150000     -30.21250000     -74.74170000
H      -44.70280000     -32.25800000     -76.03600000
