40
Properties=species:S:1:pos:R:3 #=T CELL(abcABC):=T 1.889726e+02=T 90.00000=T Traj:=T positionsangstrom=T Step:=T 0=T Bead:=T pbc="F F F"
C      -46.92140000     -32.13750000     -74.60610000
C      -45.65580000     -31.70690000     -74.23370000
C      -44.61110000     -32.64420000     -74.18750000
C      -44.77960000     -34.00210000     -74.66780000
C      -46.00600000     -34.39150000     -75.13180000
C      -47.08210000     -33.48010000     -75.08210000
H      -47.70630000     -31.40620000     -74.55250000
H      -43.59920000     -32.40320000     -73.75950000
H      -46.02240000     -35.41390000     -75.49380000
H      -48.07220000     -33.72180000     -75.37120000
C      -43.55060000     -34.93730000     -74.49550000
H      -42.84440000     -34.50370000     -73.77760000
H      -43.10160000     -35.21090000     -75.46440000
C      -45.44050000     -30.32790000     -73.65540000
H      -44.57840000     -30.29420000     -73.06520000
H      -45.36270000     -29.57390000     -74.43950000
S      -44.02310000     -36.57650000     -73.67140000
S      -46.89620000     -29.81330000     -72.59790000
C      -43.72050000     -36.08180000     -71.87160000
H      -43.74960000     -37.11740000     -71.40650000
H      -42.74710000     -35.60960000     -71.71610000
C      -46.26890000     -30.46840000     -70.98760000
H      -46.91210000     -29.99160000     -70.19920000
H      -45.27070000     -30.02040000     -70.87790000
C      -46.26420000     -31.98260000     -70.90170000
H      -47.21060000     -32.39230000     -71.23930000
H      -45.47310000     -32.18420000     -71.59810000
C      -44.84650000     -35.12510000     -71.34140000
H      -45.83380000     -35.46850000     -71.56530000
H      -44.62850000     -34.16730000     -71.82830000
C      -44.73850000     -34.89900000     -69.77940000
C      -44.25030000     -35.85260000     -68.89570000
C      -45.23060000     -33.68660000     -69.14460000
H      -43.82040000     -36.76670000     -69.13500000
C      -45.17380000     -33.86680000     -67.72460000
C      -45.87060000     -32.41680000     -69.45320000
C      -45.99910000     -31.52340000     -68.38510000
S      -44.51210000     -35.39470000     -67.24970000
S      -45.53760000     -32.37420000     -66.85000000
H      -46.35150000     -30.47850000     -68.42790000
