40
Properties=species:S:1:pos:R:3 #=T CELL(abcABC):=T 1.889726e+02=T 90.00000=T Traj:=T positionsangstrom=T Step:=T 0=T Bead:=T pbc="F F F"
C      -48.49790000     -34.41750000     -70.90840000
C      -47.48120000     -35.39420000     -70.98760000
C      -46.55130000     -35.59810000     -69.92690000
C      -46.63450000     -34.83250000     -68.79130000
C      -47.64630000     -33.84610000     -68.73890000
C      -48.53040000     -33.63950000     -69.75390000
H      -49.18270000     -34.12370000     -71.76930000
H      -45.78320000     -36.39400000     -70.05760000
H      -47.72040000     -33.20560000     -67.85610000
H      -49.07180000     -32.75160000     -69.65220000
C      -45.68540000     -35.10280000     -67.64460000
H      -46.04720000     -36.00630000     -67.15220000
H      -45.74040000     -34.30710000     -66.87550000
C      -47.59970000     -36.49730000     -72.00530000
H      -47.31570000     -37.49110000     -71.60670000
H      -48.64640000     -36.45460000     -72.43730000
S      -43.90120000     -35.29110000     -68.09310000
S      -46.25030000     -36.42830000     -73.35160000
C      -43.53300000     -33.65270000     -68.91840000
H      -43.97340000     -32.90820000     -68.27080000
H      -42.42830000     -33.62450000     -68.80090000
C      -45.96360000     -34.62600000     -73.39020000
H      -46.40200000     -34.09790000     -72.51060000
H      -46.51520000     -34.21540000     -74.24830000
C      -44.54840000     -34.19910000     -73.59240000
H      -43.90740000     -34.61880000     -72.80370000
H      -44.15010000     -34.50760000     -74.57530000
C      -43.90630000     -33.55540000     -70.38540000
H      -44.95870000     -33.97900000     -70.71760000
H      -43.19120000     -34.03430000     -71.02380000
C      -43.90700000     -32.12340000     -70.94140000
C      -43.76790000     -30.92640000     -70.19230000
C      -44.20800000     -31.86320000     -72.27660000
H      -43.67000000     -30.83540000     -69.14290000
C      -44.19150000     -30.48320000     -72.59540000
C      -44.50150000     -32.64680000     -73.47050000
C      -44.80160000     -31.92030000     -74.60800000
S      -43.75190000     -29.46440000     -71.24820000
S      -44.66020000     -30.20250000     -74.35790000
H      -45.03090000     -32.32800000     -75.55840000
