40
Properties=species:S:1:pos:R:3 #=T CELL(abcABC):=T 1.889726e+02=T 90.00000=T Traj:=T positionsangstrom=T Step:=T 0=T Bead:=T pbc="F F F"
C      -48.71370000     -34.96250000     -70.46270000
C      -47.76130000     -35.93420000     -70.65240000
C      -46.73400000     -36.08120000     -69.74820000
C      -46.58450000     -35.14310000     -68.66790000
C      -47.61390000     -34.16850000     -68.44720000
C      -48.65920000     -34.05930000     -69.39210000
H      -49.39490000     -34.66890000     -71.26580000
H      -46.13750000     -36.93490000     -69.82300000
H      -47.55150000     -33.32410000     -67.79690000
H      -49.45860000     -33.26120000     -69.40160000
C      -45.48600000     -35.21130000     -67.62280000
H      -45.53930000     -36.21310000     -67.08020000
H      -45.77290000     -34.47160000     -66.89900000
C      -47.64510000     -36.72470000     -71.94460000
H      -47.63450000     -37.84470000     -71.69440000
H      -48.47980000     -36.52380000     -72.67900000
S      -43.67430000     -34.98530000     -68.14880000
S      -45.99960000     -36.28920000     -72.78160000
C      -43.60210000     -33.27430000     -69.01790000
H      -44.41420000     -32.67110000     -68.53140000
H      -42.64090000     -32.92740000     -68.72000000
C      -45.97930000     -34.52750000     -73.22880000
H      -46.28000000     -33.89010000     -72.38660000
H      -46.72900000     -34.52370000     -74.07360000
C      -44.55260000     -34.11800000     -73.66740000
H      -43.72890000     -34.53990000     -73.02400000
H      -44.22920000     -34.55790000     -74.62150000
C      -43.88480000     -33.30800000     -70.54760000
H      -44.71190000     -33.86410000     -70.84480000
H      -43.06950000     -33.76930000     -71.10940000
C      -44.10730000     -31.94770000     -71.14310000
C      -44.01830000     -30.74300000     -70.53450000
C      -44.34790000     -31.75090000     -72.54880000
H      -43.69360000     -30.59280000     -69.43750000
C      -44.44760000     -30.39310000     -72.89500000
C      -44.42650000     -32.59570000     -73.69650000
C      -44.40120000     -31.93130000     -74.86080000
S      -44.12770000     -29.33390000     -71.50670000
S      -44.37810000     -30.16670000     -74.62350000
H      -44.44680000     -32.27910000     -75.94580000
