40
Properties=species:S:1:pos:R:3 #=T CELL(abcABC):=T 1.889726e+02=T 90.00000=T Traj:=T positionsangstrom=T Step:=T 0=T Bead:=T pbc="F F F"
C      -45.90540000     -31.09180000     -75.33760000
C      -45.18820000     -31.18930000     -74.15890000
C      -44.32830000     -32.30630000     -73.95380000
C      -44.30750000     -33.41340000     -74.81780000
C      -45.04560000     -33.27420000     -76.02760000
C      -45.83840000     -32.12900000     -76.25320000
H      -46.66110000     -30.32150000     -75.45980000
H      -43.80780000     -32.33220000     -72.98360000
H      -44.97440000     -34.11660000     -76.74880000
H      -46.57400000     -32.04940000     -77.15940000
C      -43.52730000     -34.63530000     -74.38860000
H      -42.94460000     -34.40990000     -73.43860000
H      -42.79240000     -35.01150000     -75.07800000
C      -45.37940000     -30.26170000     -72.98120000
H      -44.67340000     -30.59200000     -72.22660000
H      -45.03000000     -29.23650000     -73.18560000
S      -44.67820000     -36.03220000     -73.91380000
S      -47.06860000     -30.32440000     -72.33030000
C      -44.41150000     -36.24930000     -72.06980000
H      -44.69490000     -37.22640000     -71.86850000
H      -43.33030000     -36.08180000     -71.82760000
C      -46.82860000     -30.81610000     -70.61710000
H      -47.59730000     -30.27850000     -70.00270000
H      -45.84500000     -30.41000000     -70.32840000
C      -46.80360000     -32.37400000     -70.43230000
H      -47.81750000     -32.81790000     -70.51000000
H      -46.39470000     -32.80690000     -71.29630000
C      -45.05840000     -35.05200000     -71.32570000
H      -46.08830000     -35.01840000     -71.66680000
H      -44.51380000     -34.17790000     -71.70450000
C      -44.91930000     -35.06820000     -69.83390000
C      -44.33610000     -36.07220000     -69.14620000
C      -45.43460000     -34.02910000     -68.98220000
H      -43.82420000     -36.95170000     -69.65490000
C      -45.12600000     -34.28400000     -67.62330000
C      -46.06880000     -32.79960000     -69.19350000
C      -46.24890000     -32.08130000     -67.95610000
S      -44.24500000     -35.78090000     -67.37790000
S      -45.56860000     -32.97750000     -66.56990000
H      -46.61930000     -31.10380000     -67.81230000
