40
Properties=species:S:1:pos:R:3 #=T CELL(abcABC):=T 1.889726e+02=T 90.00000=T Traj:=T positionsangstrom=T Step:=T 0=T Bead:=T pbc="F F F"
C      -45.93690000     -31.36090000     -75.41110000
C      -45.17330000     -31.34350000     -74.26140000
C      -44.52710000     -32.58210000     -73.89520000
C      -44.62270000     -33.70180000     -74.74620000
C      -45.36750000     -33.64230000     -75.93360000
C      -46.03930000     -32.45750000     -76.23150000
H      -46.46220000     -30.47260000     -75.74080000
H      -44.03190000     -32.64130000     -72.90060000
H      -45.37280000     -34.58390000     -76.49160000
H      -46.74830000     -32.36240000     -77.09040000
C      -43.84300000     -34.92810000     -74.38470000
H      -43.13210000     -34.70800000     -73.52800000
H      -43.21650000     -35.27760000     -75.16020000
C      -45.30570000     -30.24460000     -73.26750000
H      -44.54490000     -30.25180000     -72.54450000
H      -45.14840000     -29.33010000     -73.75630000
S      -44.79770000     -36.41850000     -73.75390000
S      -47.03090000     -30.24070000     -72.56320000
C      -44.45320000     -36.29110000     -71.97220000
H      -45.07440000     -37.05030000     -71.48600000
H      -43.40670000     -36.36670000     -71.67090000
C      -46.57260000     -30.72220000     -70.84010000
H      -47.19040000     -30.33330000     -70.05840000
H      -45.60430000     -30.27030000     -70.69430000
C      -46.58410000     -32.24430000     -70.54630000
H      -47.58000000     -32.66510000     -70.66320000
H      -45.95400000     -32.70630000     -71.24940000
C      -44.78600000     -34.93000000     -71.29610000
H      -45.81080000     -34.67810000     -71.62200000
H      -44.19800000     -34.15710000     -71.65760000
C      -44.73830000     -34.89170000     -69.78620000
C      -44.13620000     -35.84400000     -68.98240000
C      -45.34350000     -33.85910000     -68.90840000
H      -43.67650000     -36.74130000     -69.33310000
C      -44.97030000     -34.00550000     -67.55750000
C      -46.09540000     -32.62890000     -69.17360000
C      -46.34390000     -31.93380000     -67.95130000
S      -44.10450000     -35.53550000     -67.26360000
S      -45.60470000     -32.72060000     -66.57770000
H      -46.76410000     -30.92670000     -67.81130000
