40
Properties=species:S:1:pos:R:3 #=T CELL(abcABC):=T 1.889726e+02=T 90.00000=T Traj:=T positionsangstrom=T Step:=T 0=T Bead:=T pbc="F F F"
C      -46.43940000     -31.81620000     -75.12700000
C      -45.46090000     -31.72030000     -74.11730000
C      -44.54550000     -32.70640000     -73.92090000
C      -44.51530000     -33.84070000     -74.75500000
C      -45.37900000     -33.90870000     -75.86980000
C      -46.37610000     -32.89520000     -76.05530000
H      -47.04370000     -30.87090000     -75.32730000
H      -43.80820000     -32.58050000     -73.11340000
H      -45.24470000     -34.73110000     -76.51520000
H      -47.03690000     -33.00420000     -76.90270000
C      -43.61640000     -34.99910000     -74.41170000
H      -42.80700000     -34.76300000     -73.75820000
H      -43.25220000     -35.41710000     -75.39200000
C      -45.34250000     -30.36890000     -73.33160000
H      -44.59740000     -30.42290000     -72.57890000
H      -45.08700000     -29.60740000     -74.02330000
S      -44.65290000     -36.39740000     -73.72820000
S      -46.98070000     -29.90770000     -72.48940000
C      -44.33600000     -36.19910000     -71.92630000
H      -44.61630000     -37.13380000     -71.44370000
H      -43.30080000     -36.14790000     -71.76430000
C      -46.75720000     -30.58810000     -70.78250000
H      -47.69460000     -30.25750000     -70.28970000
H      -45.97170000     -29.97340000     -70.29470000
C      -46.27310000     -32.08000000     -70.62150000
H      -47.09280000     -32.65210000     -70.91800000
H      -45.45380000     -32.25070000     -71.28820000
C      -45.07120000     -35.06400000     -71.27360000
H      -46.08200000     -35.29400000     -71.57770000
H      -44.77580000     -34.11020000     -71.73950000
C      -44.79820000     -34.91300000     -69.81010000
C      -44.24260000     -35.83170000     -68.99570000
C      -45.24330000     -33.78880000     -68.94590000
H      -43.70760000     -36.76980000     -69.26050000
C      -44.95050000     -33.95400000     -67.63140000
C      -45.95010000     -32.55420000     -69.20890000
C      -46.24240000     -31.82230000     -68.09240000
S      -44.03670000     -35.39820000     -67.33300000
S      -45.58750000     -32.62670000     -66.68360000
H      -46.89770000     -31.00200000     -68.06150000
