40
Properties=species:S:1:pos:R:3 #=T CELL(abcABC):=T 1.889726e+02=T 90.00000=T Traj:=T positionsangstrom=T Step:=T 0=T Bead:=T pbc="F F F"
C      -45.89850000     -31.16760000     -75.09470000
C      -45.18860000     -31.29070000     -73.90900000
C      -44.39670000     -32.45090000     -73.70950000
C      -44.22820000     -33.40840000     -74.70340000
C      -44.94760000     -33.23760000     -75.92610000
C      -45.80920000     -32.16140000     -76.09150000
H      -46.46470000     -30.27260000     -75.21180000
H      -43.83400000     -32.62330000     -72.78640000
H      -44.80640000     -34.07930000     -76.64050000
H      -46.19940000     -31.97330000     -77.06050000
C      -43.38620000     -34.65180000     -74.56570000
H      -42.62500000     -34.64110000     -73.84140000
H      -42.95950000     -35.01200000     -75.53400000
C      -45.30420000     -30.21040000     -72.94510000
H      -44.50810000     -30.11400000     -72.17410000
H      -45.34000000     -29.30110000     -73.57560000
S      -44.56010000     -36.05230000     -74.04400000
S      -47.09360000     -30.10130000     -72.17190000
C      -44.42930000     -36.06450000     -72.18530000
H      -44.78880000     -37.04740000     -71.83860000
H      -43.32070000     -36.16910000     -71.99040000
C      -46.90730000     -30.74710000     -70.48110000
H      -47.80930000     -30.57660000     -69.87520000
H      -46.10240000     -30.20140000     -70.02980000
C      -46.66370000     -32.33470000     -70.58960000
H      -47.69570000     -32.73640000     -70.78220000
H      -45.89040000     -32.49300000     -71.30310000
C      -45.24670000     -35.07600000     -71.39040000
H      -46.32690000     -35.17320000     -71.57210000
H      -45.02720000     -34.06300000     -71.73230000
C      -45.07270000     -35.20810000     -69.89450000
C      -44.46400000     -36.16540000     -69.18240000
C      -45.48300000     -34.09280000     -69.03230000
H      -43.99540000     -37.07180000     -69.65260000
C      -45.09210000     -34.29140000     -67.69440000
C      -46.24180000     -32.89910000     -69.21300000
C      -46.41600000     -32.22180000     -67.96690000
S      -44.23690000     -35.78590000     -67.49890000
S      -45.49910000     -32.97190000     -66.66250000
H      -46.91700000     -31.28590000     -67.69340000
