40
Properties=species:S:1:pos:R:3 #=T CELL(abcABC):=T 1.889726e+02=T 90.00000=T Traj:=T positionsangstrom=T Step:=T 0=T Bead:=T pbc="F F F"
C      -46.06750000     -31.54150000     -75.35460000
C      -45.25050000     -31.48660000     -74.24360000
C      -44.45550000     -32.60420000     -73.94150000
C      -44.48690000     -33.78930000     -74.82480000
C      -45.37610000     -33.79310000     -75.89170000
C      -46.21760000     -32.71670000     -76.13320000
H      -46.88570000     -30.78700000     -75.44580000
H      -43.67600000     -32.62750000     -73.13900000
H      -45.40280000     -34.70800000     -76.47790000
H      -46.82490000     -32.67030000     -77.00560000
C      -43.72050000     -35.00620000     -74.49590000
H      -42.90590000     -34.77700000     -73.82450000
H      -43.24210000     -35.45620000     -75.38310000
C      -45.28010000     -30.33760000     -73.27830000
H      -44.58830000     -30.51540000     -72.40470000
H      -45.04040000     -29.29920000     -73.73580000
S      -44.74010000     -36.29880000     -73.74400000
S      -46.98010000     -30.14890000     -72.44520000
C      -44.44510000     -36.24890000     -71.86240000
H      -44.93870000     -37.17510000     -71.53960000
H      -43.35870000     -36.51250000     -71.80630000
C      -46.65100000     -30.63520000     -70.65490000
H      -47.47450000     -30.25120000     -70.01440000
H      -45.71730000     -30.12400000     -70.45220000
C      -46.49550000     -32.13620000     -70.55200000
H      -47.49820000     -32.64660000     -70.80450000
H      -45.86400000     -32.55230000     -71.39920000
C      -45.01340000     -35.04380000     -71.25180000
H      -46.13050000     -35.03580000     -71.30090000
H      -44.64980000     -34.18980000     -71.90860000
C      -44.74040000     -34.91420000     -69.81460000
C      -44.14740000     -35.86000000     -69.03130000
C      -45.28730000     -33.81270000     -69.02230000
H      -43.61800000     -36.76890000     -69.36680000
C      -45.01200000     -33.97850000     -67.69670000
C      -46.01600000     -32.60270000     -69.22500000
C      -46.27600000     -31.87410000     -68.03470000
S      -44.13850000     -35.39850000     -67.22640000
S      -45.62260000     -32.73450000     -66.66550000
H      -46.70360000     -30.89710000     -67.95620000
