40
Properties=species:S:1:pos:R:3 #=T CELL(abcABC):=T 1.889726e+02=T 90.00000=T Traj:=T positionsangstrom=T Step:=T 0=T Bead:=T pbc="F F F"
C      -45.81200000     -31.25980000     -75.64940000
C      -45.44550000     -31.39220000     -74.30450000
C      -44.62300000     -32.44480000     -73.95770000
C      -44.42530000     -33.54210000     -74.79250000
C      -44.86710000     -33.42700000     -76.13080000
C      -45.48880000     -32.30350000     -76.56460000
H      -46.38540000     -30.42660000     -76.03770000
H      -44.34020000     -32.50230000     -72.91730000
H      -44.91440000     -34.20070000     -76.84440000
H      -45.66350000     -32.10750000     -77.60310000
C      -43.67250000     -34.71220000     -74.23380000
H      -43.17810000     -34.43780000     -73.36140000
H      -42.89500000     -35.20920000     -74.87180000
C      -45.63240000     -30.23960000     -73.27990000
H      -44.76120000     -30.20030000     -72.60310000
H      -45.67140000     -29.35530000     -73.90440000
S      -44.78960000     -36.18560000     -73.78070000
S      -47.18020000     -30.29640000     -72.26040000
C      -44.47540000     -36.32100000     -71.94320000
H      -44.82060000     -37.26460000     -71.45790000
H      -43.46330000     -36.22460000     -71.71240000
C      -46.56870000     -30.68590000     -70.54860000
H      -47.32840000     -30.35620000     -69.81530000
H      -45.64320000     -30.23320000     -70.10380000
C      -46.40660000     -32.16870000     -70.51310000
H      -47.30350000     -32.55070000     -70.84590000
H      -45.59230000     -32.55420000     -71.17860000
C      -45.15780000     -35.02850000     -71.33600000
H      -46.21020000     -34.93450000     -71.56980000
H      -44.74090000     -34.16590000     -71.78450000
C      -44.83740000     -35.00350000     -69.77410000
C      -44.22220000     -35.97310000     -69.04020000
C      -45.36180000     -33.91120000     -68.92380000
H      -43.83090000     -36.91880000     -69.31960000
C      -45.02950000     -34.19830000     -67.63660000
C      -46.09610000     -32.70580000     -69.17340000
C      -46.31130000     -32.09420000     -67.94920000
S      -44.04790000     -35.58870000     -67.31680000
S      -45.68220000     -32.94270000     -66.56460000
H      -46.84830000     -31.14230000     -67.81160000
