40
Properties=species:S:1:pos:R:3 #=T CELL(abcABC):=T 1.889726e+02=T 90.00000=T Traj:=T positionsangstrom=T Step:=T 0=T Bead:=T pbc="F F F"
C      -45.89570000     -31.35120000     -75.60800000
C      -45.48150000     -31.42610000     -74.24460000
C      -44.79010000     -32.56120000     -73.81890000
C      -44.42840000     -33.56620000     -74.74810000
C      -44.88350000     -33.46710000     -76.06890000
C      -45.57710000     -32.36750000     -76.48220000
H      -46.52070000     -30.56360000     -76.00760000
H      -44.25380000     -32.49810000     -72.90730000
H      -44.64220000     -34.16980000     -76.88670000
H      -45.76580000     -32.23310000     -77.51080000
C      -43.66180000     -34.73720000     -74.35510000
H      -43.03800000     -34.56490000     -73.50080000
H      -42.95340000     -35.13180000     -75.16950000
C      -45.57900000     -30.17990000     -73.39000000
H      -44.75950000     -30.08800000     -72.65010000
H      -45.39220000     -29.32720000     -74.03180000
S      -44.79610000     -36.20440000     -73.82770000
S      -47.10670000     -29.96240000     -72.38900000
C      -44.49620000     -36.42370000     -72.04020000
H      -44.94060000     -37.40120000     -71.85890000
H      -43.38090000     -36.57700000     -71.97420000
C      -46.68580000     -30.76010000     -70.73900000
H      -47.53430000     -30.48920000     -70.15860000
H      -45.84230000     -30.19560000     -70.40310000
C      -46.50200000     -32.28820000     -70.57250000
H      -47.32360000     -33.02770000     -70.92910000
H      -45.72850000     -32.47560000     -71.33060000
C      -45.11780000     -35.18380000     -71.17930000
H      -46.19360000     -35.25710000     -71.38670000
H      -44.76490000     -34.24920000     -71.71520000
C      -44.78070000     -35.06670000     -69.65970000
C      -44.04380000     -35.94470000     -68.94870000
C      -45.30090000     -33.94330000     -68.92240000
H      -43.54640000     -36.83650000     -69.30860000
C      -45.02700000     -34.15340000     -67.57050000
C      -46.06200000     -32.79140000     -69.22740000
C      -46.23370000     -32.08440000     -68.04750000
S      -44.03990000     -35.53840000     -67.13680000
S      -45.71820000     -32.93130000     -66.55340000
H      -46.89410000     -31.14520000     -68.04170000
