40
Properties=species:S:1:pos:R:3 #=T CELL(abcABC):=T 1.889726e+02=T 90.00000=T Traj:=T positionsangstrom=T Step:=T 0=T Bead:=T pbc="F F F"
C      -46.39580000     -30.96390000     -74.78950000
C      -45.44530000     -30.83890000     -73.78400000
C      -44.45180000     -31.81500000     -73.71390000
C      -44.44090000     -32.95400000     -74.55790000
C      -45.49160000     -33.08110000     -75.45960000
C      -46.49070000     -32.13870000     -75.56490000
H      -47.26280000     -30.37620000     -74.86910000
H      -43.66830000     -31.77520000     -73.03370000
H      -45.61980000     -33.84360000     -76.20550000
H      -47.37610000     -32.21660000     -76.19680000
C      -43.34830000     -34.06030000     -74.36390000
H      -42.76260000     -33.78500000     -73.53100000
H      -42.63030000     -34.09330000     -75.20450000
C      -45.42290000     -29.63850000     -72.87250000
H      -44.45010000     -29.45640000     -72.40660000
H      -45.66110000     -28.75190000     -73.47090000
S      -43.99130000     -35.73310000     -74.34220000
S      -46.62910000     -29.54670000     -71.54620000
C      -44.08000000     -36.02550000     -72.52430000
H      -44.27180000     -37.05160000     -72.41700000
H      -43.06540000     -35.92130000     -72.00430000
C      -46.02480000     -30.41410000     -70.03910000
H      -46.81630000     -30.11760000     -69.33880000
H      -45.05730000     -29.95010000     -69.68190000
C      -45.98950000     -31.91530000     -70.31470000
H      -46.95950000     -32.10380000     -70.83640000
H      -45.13660000     -32.07020000     -71.03150000
C      -45.08260000     -35.10000000     -71.85650000
H      -46.01660000     -35.31410000     -72.33390000
H      -44.76460000     -34.06600000     -71.82180000
C      -45.24730000     -35.34920000     -70.32030000
C      -45.12550000     -36.63930000     -69.81260000
C      -45.49790000     -34.34760000     -69.24800000
H      -44.83080000     -37.47110000     -70.39050000
C      -45.32340000     -34.97340000     -67.96770000
C      -45.79910000     -32.93980000     -69.14150000
C      -45.85170000     -32.52860000     -67.76660000
S      -45.12820000     -36.69750000     -68.05480000
S      -45.57910000     -33.82150000     -66.64890000
H      -46.26280000     -31.55120000     -67.37650000
