40
Properties=species:S:1:pos:R:3 #=T CELL(abcABC):=T 1.889726e+02=T 90.00000=T Traj:=T positionsangstrom=T Step:=T 0=T Bead:=T pbc="F F F"
C      -44.37210000     -31.14310000     -67.25910000
C      -45.53680000     -31.36490000     -68.05460000
C      -45.88570000     -32.69930000     -68.30060000
C      -45.10280000     -33.77060000     -67.96140000
C      -43.84960000     -33.47520000     -67.27210000
C      -43.50260000     -32.16270000     -66.94490000
H      -44.18580000     -30.07150000     -67.02850000
H      -46.77630000     -32.94900000     -68.86990000
H      -43.21520000     -34.32500000     -67.08960000
H      -42.64170000     -31.90400000     -66.50410000
C      -45.67540000     -35.15240000     -68.26040000
H      -46.45500000     -34.99670000     -69.05800000
H      -46.10170000     -35.69500000     -67.50590000
C      -46.32640000     -30.14350000     -68.61710000
H      -46.99390000     -29.83700000     -67.85130000
H      -45.55470000     -29.42090000     -68.81120000
S      -44.34820000     -36.18510000     -69.10150000
S      -47.46930000     -30.53410000     -70.02020000
C      -44.33960000     -35.50370000     -70.77590000
H      -43.97770000     -34.42580000     -70.69180000
H      -43.62860000     -36.11280000     -71.37380000
C      -46.20930000     -30.66400000     -71.46690000
H      -45.46670000     -29.93600000     -71.20120000
H      -46.78400000     -30.37150000     -72.35880000
C      -45.66420000     -32.12710000     -71.77880000
H      -44.70140000     -32.21840000     -71.22290000
H      -46.24830000     -32.77190000     -71.16040000
C      -45.68510000     -35.57790000     -71.52160000
H      -46.52260000     -34.93880000     -71.12380000
H      -45.87750000     -36.65490000     -71.39080000
C      -45.40580000     -35.25650000     -72.98600000
C      -45.16410000     -36.25780000     -73.97790000
C      -45.48780000     -33.93770000     -73.62510000
H      -45.08100000     -37.32000000     -73.81970000
C      -45.25180000     -34.04480000     -74.97870000
C      -45.45540000     -32.58090000     -73.15700000
C      -45.11420000     -31.73850000     -74.22310000
S      -44.98910000     -35.69380000     -75.56920000
S      -44.98980000     -32.53500000     -75.77530000
H      -45.12940000     -30.66020000     -74.27320000
