40
Properties=species:S:1:pos:R:3 #=T CELL(abcABC):=T 1.889726e+02=T 90.00000=T Traj:=T positionsangstrom=T Step:=T 0=T Bead:=T pbc="F F F"
C      -44.32520000     -31.03740000     -67.27850000
C      -45.48910000     -31.23750000     -68.07580000
C      -45.95000000     -32.57740000     -68.29940000
C      -45.23860000     -33.73410000     -67.89630000
C      -44.04110000     -33.47340000     -67.30630000
C      -43.65420000     -32.17150000     -66.84820000
H      -43.95100000     -30.11070000     -66.88450000
H      -46.88870000     -32.65920000     -68.95900000
H      -43.48610000     -34.33580000     -67.15240000
H      -42.79820000     -32.08070000     -66.29370000
C      -45.56520000     -35.18340000     -68.21690000
H      -46.49460000     -35.29440000     -68.77090000
H      -45.71140000     -35.63220000     -67.20090000
C      -46.17370000     -30.08590000     -68.59340000
H      -46.88420000     -29.53230000     -67.92960000
H      -45.43240000     -29.28480000     -68.81180000
S      -44.34380000     -36.22640000     -69.11380000
S      -47.22960000     -30.41600000     -70.07780000
C      -44.27870000     -35.50870000     -70.85440000
H      -44.11670000     -34.49440000     -70.63520000
H      -43.47870000     -35.93410000     -71.49050000
C      -46.33430000     -30.84290000     -71.64980000
H      -45.52480000     -30.09820000     -71.76740000
H      -47.01060000     -30.53430000     -72.48070000
C      -45.88960000     -32.25910000     -71.75070000
H      -44.95060000     -32.47660000     -71.27040000
H      -46.65410000     -32.98340000     -71.44300000
C      -45.60050000     -35.63470000     -71.55910000
H      -46.39070000     -35.02570000     -70.98090000
H      -46.00990000     -36.61360000     -71.57010000
C      -45.50090000     -35.28170000     -73.01190000
C      -45.51740000     -36.34720000     -73.95980000
C      -45.23550000     -34.02490000     -73.61830000
H      -45.70200000     -37.40980000     -73.74450000
C      -45.00040000     -34.03870000     -75.01550000
C      -45.47040000     -32.65890000     -73.13470000
C      -45.33130000     -31.74820000     -74.16640000
S      -45.00660000     -35.72070000     -75.55790000
S      -44.95400000     -32.47520000     -75.68450000
H      -45.44400000     -30.67930000     -74.08930000
