40
Properties=species:S:1:pos:R:3 #=T CELL(abcABC):=T 1.889726e+02=T 90.00000=T Traj:=T positionsangstrom=T Step:=T 0=T Bead:=T pbc="F F F"
C      -44.14380000     -31.13330000     -67.59480000
C      -45.36100000     -31.32140000     -68.16720000
C      -45.90910000     -32.60970000     -68.31330000
C      -45.13790000     -33.73520000     -67.90930000
C      -43.99190000     -33.54380000     -67.14920000
C      -43.41410000     -32.23350000     -67.04170000
H      -43.74990000     -30.18580000     -67.30110000
H      -46.92740000     -32.76710000     -68.77810000
H      -43.55500000     -34.40900000     -66.73980000
H      -42.46810000     -32.07480000     -66.64020000
C      -45.68500000     -35.10640000     -68.08620000
H      -46.66360000     -35.11160000     -68.51290000
H      -45.81960000     -35.65800000     -67.08210000
C      -45.97700000     -30.06210000     -68.68300000
H      -46.61630000     -29.55270000     -67.89100000
H      -45.33370000     -29.25720000     -68.89520000
S      -44.58310000     -36.23270000     -69.00970000
S      -47.17610000     -30.33430000     -70.08660000
C      -44.44470000     -35.52820000     -70.76490000
H      -44.14100000     -34.47380000     -70.81300000
H      -43.58570000     -36.12050000     -71.11290000
C      -46.17980000     -30.78220000     -71.60730000
H      -45.14210000     -30.35360000     -71.49330000
H      -46.55680000     -30.24600000     -72.46150000
C      -46.12400000     -32.26090000     -71.84250000
H      -45.75530000     -32.85110000     -70.99560000
H      -47.19830000     -32.61800000     -72.00000000
C      -45.76730000     -35.69870000     -71.56680000
H      -46.50730000     -35.02470000     -71.20210000
H      -46.11440000     -36.70470000     -71.43850000
C      -45.57270000     -35.31340000     -72.98140000
C      -45.42710000     -36.30970000     -73.89910000
C      -45.51930000     -33.95490000     -73.63270000
H      -45.47300000     -37.37280000     -73.68030000
C      -45.25350000     -34.06740000     -74.96720000
C      -45.49860000     -32.61030000     -73.18320000
C      -45.03380000     -31.69420000     -74.14080000
S      -45.10790000     -35.70520000     -75.52880000
S      -44.73320000     -32.51390000     -75.70780000
H      -45.06540000     -30.63950000     -74.13240000
