40
Properties=species:S:1:pos:R:3 #=T CELL(abcABC):=T 1.889726e+02=T 90.00000=T Traj:=T positionsangstrom=T Step:=T 0=T Bead:=T pbc="F F F"
C      -44.64010000     -31.75580000     -67.92220000
C      -45.80310000     -32.57220000     -68.03010000
C      -45.70700000     -33.95000000     -68.21030000
C      -44.41980000     -34.55720000     -68.30870000
C      -43.22950000     -33.79030000     -68.15580000
C      -43.38300000     -32.40150000     -67.93240000
H      -44.81930000     -30.76820000     -67.47180000
H      -46.64370000     -34.42820000     -68.07390000
H      -42.22760000     -34.21380000     -68.19910000
H      -42.42400000     -31.90740000     -67.62940000
C      -44.41610000     -36.10670000     -68.45480000
H      -45.42960000     -36.42260000     -68.51190000
H      -43.88150000     -36.48910000     -67.63040000
C      -47.17720000     -31.96520000     -67.85230000
H      -47.84730000     -32.79910000     -67.65860000
H      -47.15900000     -31.22890000     -67.10740000
S      -43.56300000     -36.66090000     -69.98280000
S      -47.72910000     -30.88610000     -69.33390000
C      -43.92870000     -35.40630000     -71.31290000
H      -43.68860000     -34.35980000     -70.97060000
H      -43.26950000     -35.61940000     -72.15390000
C      -47.35400000     -31.89480000     -70.78800000
H      -47.86910000     -31.38640000     -71.70010000
H      -47.67370000     -32.95250000     -70.66680000
C      -45.86590000     -31.98870000     -71.10100000
H      -45.37630000     -31.12860000     -70.64150000
H      -45.53490000     -32.88610000     -70.60590000
C      -45.35330000     -35.41520000     -71.85050000
H      -45.93820000     -34.96200000     -71.07270000
H      -45.75830000     -36.38960000     -72.06690000
C      -45.36940000     -34.69920000     -73.16570000
C      -45.27890000     -35.41510000     -74.31720000
C      -45.46210000     -33.24180000     -73.40870000
H      -45.39690000     -36.54640000     -74.37060000
C      -45.32110000     -32.98100000     -74.80930000
C      -45.57480000     -32.04440000     -72.65060000
C      -45.58610000     -30.90930000     -73.51860000
S      -45.31430000     -34.45360000     -75.81000000
S      -45.21790000     -31.33270000     -75.15880000
H      -45.40970000     -29.85560000     -73.06500000
