40
Properties=species:S:1:pos:R:3 #=T CELL(abcABC):=T 1.889726e+02=T 90.00000=T Traj:=T positionsangstrom=T Step:=T 0=T Bead:=T pbc="F F F"
C      -43.51170000     -31.40210000     -68.38060000
C      -44.93590000     -31.43960000     -68.58210000
C      -45.72870000     -32.58940000     -68.27210000
C      -45.11260000     -33.78180000     -67.94480000
C      -43.67760000     -33.78360000     -67.80410000
C      -42.87800000     -32.59870000     -67.98350000
H      -43.08670000     -30.44700000     -68.65760000
H      -46.81970000     -32.47910000     -68.46460000
H      -43.19950000     -34.73580000     -67.42740000
H      -41.78050000     -32.68510000     -67.72790000
C      -45.94740000     -34.99810000     -67.75420000
H      -46.98910000     -34.75940000     -67.88530000
H      -45.79470000     -35.40470000     -66.75310000
C      -45.66840000     -30.14500000     -68.85400000
H      -45.95690000     -29.76850000     -67.92350000
H      -44.87940000     -29.43390000     -69.24000000
S      -45.51870000     -36.45910000     -68.84870000
S      -47.12970000     -30.16030000     -70.05400000
C      -44.88320000     -35.76060000     -70.40550000
H      -44.32590000     -34.82750000     -70.19100000
H      -44.25280000     -36.58510000     -70.70070000
C      -46.33090000     -30.59020000     -71.61960000
H      -45.45610000     -29.89200000     -71.74480000
H      -46.93500000     -30.42480000     -72.49410000
C      -45.96790000     -32.06890000     -71.70720000
H      -45.40920000     -32.48700000     -70.85050000
H      -46.91230000     -32.65410000     -71.55940000
C      -45.98740000     -35.46870000     -71.50430000
H      -46.59940000     -34.64800000     -71.03640000
H      -46.59410000     -36.32240000     -71.46550000
C      -45.47960000     -35.20170000     -72.88780000
C      -45.57490000     -36.22170000     -73.84630000
C      -45.20240000     -33.90410000     -73.42370000
H      -45.91860000     -37.21760000     -73.66000000
C      -44.86910000     -34.02580000     -74.77440000
C      -45.33140000     -32.51400000     -73.02380000
C      -45.18990000     -31.62200000     -74.07640000
S      -45.04420000     -35.66280000     -75.39360000
S      -44.73290000     -32.45100000     -75.52470000
H      -45.29110000     -30.52740000     -74.01990000
