40
Properties=species:S:1:pos:R:3 #=T CELL(abcABC):=T 1.889726e+02=T 90.00000=T Traj:=T positionsangstrom=T Step:=T 0=T Bead:=T pbc="F F F"
C      -42.34210000     -32.41610000     -73.44040000
C      -43.22990000     -33.29010000     -72.80050000
C      -43.85070000     -32.85550000     -71.66160000
C      -43.60020000     -31.57060000     -71.13070000
C      -42.72730000     -30.73840000     -71.77930000
C      -42.12790000     -31.16310000     -72.98310000
H      -41.66480000     -32.71190000     -74.27130000
H      -44.46900000     -33.63240000     -71.19140000
H      -42.40710000     -29.75200000     -71.27360000
H      -41.51490000     -30.41450000     -73.54540000
C      -44.33130000     -31.13130000     -69.87740000
H      -43.76130000     -30.41360000     -69.20920000
H      -44.73870000     -31.97440000     -69.24240000
C      -43.41230000     -34.69220000     -73.29930000
H      -42.43260000     -34.88940000     -73.70540000
H      -43.69300000     -35.38080000     -72.43720000
S      -45.75270000     -30.02260000     -70.51980000
S      -44.75600000     -34.79150000     -74.61080000
C      -46.84240000     -30.99040000     -71.54290000
H      -47.49510000     -30.35180000     -72.09220000
H      -46.39080000     -31.42650000     -72.46730000
C      -46.22280000     -33.80320000     -73.93850000
H      -46.68000000     -33.27480000     -74.77260000
H      -45.78790000     -32.96770000     -73.32620000
C      -47.14770000     -34.62020000     -73.05200000
H      -48.06250000     -34.14730000     -72.83500000
H      -47.45440000     -35.49780000     -73.60790000
C      -47.76750000     -32.04850000     -70.98900000
H      -48.33480000     -32.44360000     -71.85570000
H      -48.52520000     -31.47700000     -70.41840000
C      -47.18780000     -33.10550000     -70.09670000
C      -47.18560000     -33.03000000     -68.73880000
C      -46.62630000     -34.35450000     -70.49270000
H      -47.68960000     -32.27280000     -68.11200000
C      -46.01730000     -35.01380000     -69.42730000
C      -46.52670000     -35.06490000     -71.71570000
C      -45.94150000     -36.34210000     -71.54720000
S      -46.34100000     -34.27030000     -67.87740000
S      -45.25480000     -36.52320000     -69.84360000
H      -45.65340000     -36.92480000     -72.44530000
