40
Properties=species:S:1:pos:R:3 #=T CELL(abcABC):=T 1.889726e+02=T 90.00000=T Traj:=T positionsangstrom=T Step:=T 0=T Bead:=T pbc="F F F"
C      -46.44590000     -30.72170000     -74.24340000
C      -45.43790000     -30.69990000     -73.22530000
C      -44.37840000     -31.62790000     -73.32210000
C      -44.40680000     -32.62580000     -74.27930000
C      -45.46720000     -32.63780000     -75.25650000
C      -46.45030000     -31.66770000     -75.23070000
H      -47.23080000     -29.93850000     -74.27520000
H      -43.54210000     -31.57720000     -72.64540000
H      -45.38240000     -33.35820000     -76.07310000
H      -47.30210000     -31.67340000     -75.90050000
C      -43.21580000     -33.47480000     -74.33340000
H      -42.64150000     -33.45310000     -73.42710000
H      -42.58190000     -33.12550000     -75.20190000
C      -45.32010000     -29.67940000     -72.09920000
H      -44.45870000     -30.00830000     -71.47820000
H      -45.04820000     -28.64040000     -72.45240000
S      -43.62690000     -35.25510000     -74.55850000
S      -46.90150000     -29.54470000     -71.15580000
C      -44.09560000     -35.86750000     -72.87270000
H      -44.53310000     -36.86030000     -73.13350000
H      -43.16980000     -36.07570000     -72.31170000
C      -46.59820000     -30.73770000     -69.85160000
H      -47.42890000     -30.68610000     -69.19130000
H      -45.70690000     -30.47700000     -69.24560000
C      -46.44320000     -32.23040000     -70.40480000
H      -47.33400000     -32.62370000     -70.94740000
H      -45.62830000     -32.25500000     -71.20130000
C      -45.02660000     -34.98740000     -72.08050000
H      -46.07350000     -34.96600000     -72.42470000
H      -44.67200000     -33.93550000     -72.17320000
C      -45.08240000     -35.41580000     -70.58980000
C      -44.62800000     -36.63390000     -70.23580000
C      -45.45610000     -34.57790000     -69.51050000
H      -44.00960000     -37.37500000     -70.85080000
C      -45.20030000     -35.22760000     -68.28490000
C      -46.15440000     -33.23350000     -69.27290000
C      -46.42100000     -33.06000000     -67.97040000
S      -44.58800000     -36.86880000     -68.41960000
S      -45.90750000     -34.37930000     -66.89890000
H      -46.96850000     -32.30580000     -67.51320000
