40
Properties=species:S:1:pos:R:3 #=T CELL(abcABC):=T 1.889726e+02=T 90.00000=T Traj:=T positionsangstrom=T Step:=T 0=T Bead:=T pbc="F F F"
C      -44.62880000     -31.82760000     -67.64480000
C      -45.76510000     -32.65490000     -67.91320000
C      -45.64250000     -34.01090000     -68.35730000
C      -44.31560000     -34.55220000     -68.35540000
C      -43.30250000     -33.79230000     -67.86090000
C      -43.39540000     -32.42020000     -67.67080000
H      -44.72010000     -30.79150000     -67.30380000
H      -46.43390000     -34.65960000     -68.55360000
H      -42.31890000     -34.28340000     -67.81030000
H      -42.60740000     -31.84220000     -67.30220000
C      -44.18220000     -36.03620000     -68.59290000
H      -45.12790000     -36.41960000     -68.79150000
H      -43.68460000     -36.45450000     -67.72780000
C      -47.15190000     -32.12790000     -67.99440000
H      -47.73220000     -32.97420000     -68.29670000
H      -47.36770000     -31.70030000     -66.96510000
S      -42.97450000     -36.48560000     -69.98630000
S      -47.56360000     -30.74520000     -69.15000000
C      -43.42250000     -35.21390000     -71.26730000
H      -43.13180000     -34.21110000     -70.85180000
H      -42.77650000     -35.31250000     -72.12460000
C      -47.27200000     -31.61140000     -70.78030000
H      -47.78130000     -30.88310000     -71.47960000
H      -47.73300000     -32.57990000     -70.82630000
C      -45.79080000     -31.70670000     -71.29180000
H      -45.30130000     -30.75870000     -71.01150000
H      -45.26310000     -32.57120000     -70.84180000
C      -44.91330000     -35.18020000     -71.76540000
H      -45.60040000     -34.64860000     -71.06220000
H      -45.21920000     -36.24920000     -71.74400000
C      -45.22980000     -34.66410000     -73.16140000
C      -45.05700000     -35.46760000     -74.21710000
C      -45.63050000     -33.32040000     -73.47770000
H      -44.79540000     -36.48620000     -74.18090000
C      -45.75300000     -33.20100000     -74.84720000
C      -45.78760000     -32.00590000     -72.78430000
C      -45.90840000     -31.01370000     -73.74220000
S      -45.60160000     -34.68400000     -75.71650000
S      -46.04060000     -31.57320000     -75.43470000
H      -46.02050000     -30.02490000     -73.43550000
