40
Properties=species:S:1:pos:R:3 #=T CELL(abcABC):=T 1.889726e+02=T 90.00000=T Traj:=T positionsangstrom=T Step:=T 0=T Bead:=T pbc="F F F"
C      -44.85620000     -31.82270000     -67.93420000
C      -45.95800000     -32.72100000     -68.03600000
C      -45.74330000     -34.09390000     -68.15170000
C      -44.43580000     -34.58520000     -68.28400000
C      -43.30620000     -33.70070000     -68.26860000
C      -43.56260000     -32.32250000     -68.10220000
H      -45.12410000     -30.77710000     -68.04010000
H      -46.62300000     -34.81390000     -68.32660000
H      -42.22390000     -33.97920000     -68.23770000
H      -42.82910000     -31.51900000     -68.11620000
C      -44.25420000     -36.06140000     -68.44970000
H      -45.22880000     -36.63710000     -68.55000000
H      -43.80200000     -36.64790000     -67.63240000
C      -47.30930000     -32.10260000     -67.98700000
H      -48.13790000     -32.92250000     -68.08480000
H      -47.42750000     -31.69890000     -66.98380000
S      -43.36180000     -36.53050000     -69.98940000
S      -47.61010000     -30.80680000     -69.21220000
C      -43.85190000     -35.20120000     -71.15720000
H      -43.64820000     -34.22800000     -70.75790000
H      -43.12330000     -35.23410000     -71.98910000
C      -47.12860000     -31.80090000     -70.73710000
H      -47.64740000     -31.33760000     -71.52540000
H      -47.51620000     -32.80690000     -70.67880000
C      -45.63680000     -31.84800000     -71.10590000
H      -45.11030000     -30.92780000     -70.87300000
H      -45.03200000     -32.59450000     -70.59110000
C      -45.27330000     -35.29060000     -71.76750000
H      -46.09350000     -34.86220000     -71.13040000
H      -45.50920000     -36.37600000     -71.83360000
C      -45.35200000     -34.72230000     -73.18490000
C      -45.17580000     -35.45610000     -74.29300000
C      -45.51540000     -33.31580000     -73.43460000
H      -44.89330000     -36.50610000     -74.29960000
C      -45.49570000     -33.07880000     -74.82040000
C      -45.51050000     -32.10440000     -72.67450000
C      -45.44990000     -30.97440000     -73.51900000
S      -45.21520000     -34.55190000     -75.78760000
S      -45.69040000     -31.41950000     -75.21630000
H      -45.32990000     -29.96910000     -73.08030000
