40
Properties=species:S:1:pos:R:3 #=T CELL(abcABC):=T 1.889726e+02=T 90.00000=T Traj:=T positionsangstrom=T Step:=T 0=T Bead:=T pbc="F F F"
C      -44.51500000     -32.00500000     -67.40950000
C      -45.60780000     -32.63000000     -68.00160000
C      -45.51470000     -33.98450000     -68.41980000
C      -44.24970000     -34.59620000     -68.34470000
C      -43.21180000     -33.95370000     -67.74450000
C      -43.31020000     -32.68310000     -67.25970000
H      -44.53300000     -30.93590000     -67.27570000
H      -46.34830000     -34.46860000     -68.97340000
H      -42.27900000     -34.43260000     -67.53520000
H      -42.43350000     -32.11260000     -66.86800000
C      -44.13400000     -36.01430000     -68.85410000
H      -45.18530000     -36.44890000     -69.15110000
H      -43.78960000     -36.73430000     -68.04700000
C      -46.95350000     -32.01900000     -67.97460000
H      -47.67940000     -32.85750000     -67.84410000
H      -47.04020000     -31.40630000     -67.08850000
S      -42.94760000     -36.35280000     -70.15360000
S      -47.58230000     -30.77900000     -69.27910000
C      -43.29130000     -35.16170000     -71.52440000
H      -42.89800000     -34.15920000     -71.40750000
H      -42.92970000     -35.60070000     -72.43550000
C      -47.40100000     -31.67720000     -70.85770000
H      -48.04290000     -31.12170000     -71.53750000
H      -47.82100000     -32.67440000     -70.81330000
C      -45.98800000     -31.63750000     -71.35540000
H      -45.47060000     -30.71220000     -71.14630000
H      -45.34400000     -32.26600000     -70.68980000
C      -44.85310000     -35.03500000     -71.62940000
H      -45.15910000     -34.31320000     -70.88320000
H      -45.37760000     -35.94320000     -71.46560000
C      -45.24780000     -34.59670000     -73.04900000
C      -45.24260000     -35.49480000     -74.08290000
C      -45.59680000     -33.25920000     -73.45100000
H      -45.08890000     -36.57010000     -74.10870000
C      -45.76690000     -33.23720000     -74.82800000
C      -45.82030000     -31.95170000     -72.79540000
C      -46.14700000     -30.99520000     -73.74160000
S      -45.55140000     -34.70740000     -75.59130000
S      -46.20480000     -31.60610000     -75.39810000
H      -46.36760000     -29.96680000     -73.53270000
