40
Properties=species:S:1:pos:R:3 #=T CELL(abcABC):=T 1.889726e+02=T 90.00000=T Traj:=T positionsangstrom=T Step:=T 0=T Bead:=T pbc="F F F"
C      -44.06560000     -32.21750000     -67.16860000
C      -45.26950000     -32.89200000     -67.55540000
C      -45.17470000     -34.12020000     -68.24480000
C      -43.93710000     -34.82640000     -68.35950000
C      -42.82320000     -34.11610000     -67.96170000
C      -42.88420000     -32.87670000     -67.43580000
H      -44.03600000     -31.24750000     -66.69750000
H      -46.04910000     -34.70120000     -68.55860000
H      -41.80660000     -34.49470000     -68.12080000
H      -41.97970000     -32.26090000     -67.23380000
C      -43.89710000     -36.21310000     -69.02420000
H      -44.93390000     -36.50560000     -69.30400000
H      -43.51590000     -37.03460000     -68.42140000
C      -46.62320000     -32.09260000     -67.47490000
H      -47.43930000     -32.81390000     -67.47150000
H      -46.58100000     -31.51590000     -66.53090000
S      -42.93120000     -36.18360000     -70.56790000
S      -46.76710000     -30.76570000     -68.75590000
C      -43.70130000     -34.85910000     -71.57580000
H      -43.55830000     -33.93560000     -71.08360000
H      -43.06740000     -34.83140000     -72.44960000
C      -47.06970000     -31.60820000     -70.34970000
H      -47.88240000     -31.09620000     -70.85640000
H      -47.49230000     -32.58200000     -70.10830000
C      -45.90830000     -31.58250000     -71.36520000
H      -45.36080000     -30.65390000     -71.59050000
H      -45.03170000     -32.27210000     -71.09450000
C      -45.13780000     -35.17590000     -71.92770000
H      -45.77470000     -34.79000000     -71.16200000
H      -45.35050000     -36.29350000     -72.02200000
C      -45.58340000     -34.60070000     -73.24570000
C      -45.49550000     -35.34350000     -74.37470000
C      -46.04730000     -33.28810000     -73.54130000
H      -45.35560000     -36.41380000     -74.42560000
C      -46.22000000     -33.08730000     -74.95470000
C      -46.29310000     -32.06230000     -72.83220000
C      -46.72160000     -31.07080000     -73.70830000
S      -46.01060000     -34.56930000     -75.81250000
S      -46.62950000     -31.49030000     -75.37420000
H      -46.89530000     -30.03840000     -73.51880000
