40
Properties=species:S:1:pos:R:3 #=T CELL(abcABC):=T 1.889726e+02=T 90.00000=T Traj:=T positionsangstrom=T Step:=T 0=T Bead:=T pbc="F F F"
C      -44.58220000     -32.07520000     -66.97940000
C      -45.69970000     -32.66750000     -67.51260000
C      -45.57190000     -33.96490000     -68.12510000
C      -44.26070000     -34.61210000     -68.15390000
C      -43.11320000     -33.80360000     -67.92670000
C      -43.33750000     -32.57750000     -67.36870000
H      -44.62170000     -31.10890000     -66.47390000
H      -46.50460000     -34.43580000     -68.43360000
H      -42.06110000     -33.97310000     -68.14680000
H      -42.46500000     -31.92810000     -67.40590000
C      -44.17100000     -35.94220000     -68.70830000
H      -45.14970000     -36.32990000     -69.00940000
H      -43.81650000     -36.58310000     -67.85400000
C      -47.02840000     -32.04440000     -67.65580000
H      -47.82860000     -32.82030000     -67.67540000
H      -47.27710000     -31.51890000     -66.71850000
S      -42.91420000     -36.20800000     -70.07250000
S      -46.96300000     -30.89600000     -69.12280000
C      -43.37720000     -35.17950000     -71.44060000
H      -43.08780000     -34.14570000     -71.33740000
H      -42.76670000     -35.61500000     -72.28210000
C      -46.96660000     -31.98440000     -70.65040000
H      -47.94450000     -31.82090000     -71.13440000
H      -46.91320000     -33.02380000     -70.34500000
C      -45.71790000     -31.66410000     -71.51670000
H      -45.39550000     -30.54440000     -71.43650000
H      -44.78980000     -32.18810000     -71.27590000
C      -44.85710000     -35.06320000     -71.88040000
H      -45.35730000     -34.36850000     -71.15550000
H      -45.41680000     -35.92800000     -71.72470000
C      -45.19890000     -34.55780000     -73.29580000
C      -45.03210000     -35.36570000     -74.40740000
C      -45.67610000     -33.22910000     -73.59800000
H      -44.64430000     -36.33470000     -74.36030000
C      -45.88340000     -33.19280000     -74.98040000
C      -46.03250000     -31.98980000     -72.95380000
C      -46.50650000     -31.08670000     -73.79680000
S      -45.70020000     -34.65020000     -75.89630000
S      -46.68190000     -31.66680000     -75.48510000
H      -46.67580000     -30.00800000     -73.55730000
