40
Properties=species:S:1:pos:R:3 #=T CELL(abcABC):=T 1.889726e+02=T 90.00000=T Traj:=T positionsangstrom=T Step:=T 0=T Bead:=T pbc="F F F"
C      -46.81110000     -30.58920000     -73.68420000
C      -45.84790000     -30.22090000     -72.71620000
C      -44.50250000     -30.57390000     -72.78160000
C      -44.09210000     -31.38890000     -73.84430000
C      -45.00650000     -31.81790000     -74.80120000
C      -46.37900000     -31.46870000     -74.74200000
H      -47.84760000     -30.38880000     -73.47540000
H      -43.92310000     -30.29990000     -71.88410000
H      -44.64840000     -32.38810000     -75.72400000
H      -47.03860000     -31.92010000     -75.48910000
C      -42.68320000     -31.96540000     -74.01420000
H      -42.13090000     -31.63560000     -73.13640000
H      -42.18230000     -31.54120000     -74.90250000
C      -46.31010000     -29.35040000     -71.56080000
H      -45.34260000     -28.92150000     -71.10910000
H      -46.81290000     -28.40810000     -71.82920000
S      -42.73780000     -33.82790000     -74.29900000
S      -47.39600000     -30.22830000     -70.33950000
C      -42.70050000     -34.52990000     -72.60730000
H      -42.61910000     -35.59730000     -72.76950000
H      -41.83360000     -34.19630000     -72.09980000
C      -46.64270000     -31.75490000     -69.67280000
H      -47.23740000     -31.88900000     -68.71630000
H      -45.53920000     -31.77020000     -69.52940000
C      -47.11250000     -32.91670000     -70.57380000
H      -48.28030000     -32.89610000     -70.65590000
H      -46.52150000     -32.91160000     -71.54340000
C      -43.96460000     -34.12160000     -71.78850000
H      -44.78790000     -33.96830000     -72.53540000
H      -43.81140000     -33.09390000     -71.45480000
C      -44.21380000     -35.04750000     -70.64130000
C      -43.33700000     -35.93390000     -70.09210000
C      -45.55910000     -35.08840000     -69.96590000
H      -42.40240000     -36.21320000     -70.50120000
C      -45.62430000     -36.10950000     -69.06150000
C      -46.77610000     -34.27780000     -69.87660000
C      -47.70560000     -34.87390000     -69.10580000
S      -44.12360000     -37.04150000     -68.84120000
S      -47.18960000     -36.31450000     -68.25490000
H      -48.72010000     -34.56720000     -69.04210000
