40
Properties=species:S:1:pos:R:3 #=T CELL(abcABC):=T 1.889726e+02=T 90.00000=T Traj:=T positionsangstrom=T Step:=T 0=T Bead:=T pbc="F F F"
C      -43.57740000     -32.18210000     -67.69610000
C      -44.90550000     -32.74770000     -67.69060000
C      -45.12030000     -34.06240000     -68.09390000
C      -44.03850000     -34.90130000     -68.44340000
C      -42.77470000     -34.36470000     -68.48630000
C      -42.52380000     -33.05940000     -68.07910000
H      -43.43000000     -31.16010000     -67.45240000
H      -46.20140000     -34.37550000     -68.15920000
H      -41.90690000     -34.92930000     -68.87920000
H      -41.52190000     -32.61930000     -68.14910000
C      -44.27020000     -36.39470000     -68.77920000
H      -45.25950000     -36.62020000     -68.46120000
H      -43.51470000     -36.99150000     -68.09060000
C      -46.15850000     -31.91400000     -67.56710000
H      -47.01420000     -32.49120000     -67.77010000
H      -46.07650000     -31.31800000     -66.62890000
S      -43.92250000     -36.99020000     -70.56060000
S      -46.23710000     -30.58450000     -68.88410000
C      -44.27820000     -35.63590000     -71.71500000
H      -43.67640000     -34.71850000     -71.40530000
H      -43.78600000     -35.90250000     -72.61910000
C      -46.60770000     -31.52370000     -70.43450000
H      -47.21930000     -30.81850000     -70.99100000
H      -47.10090000     -32.39800000     -70.02410000
C      -45.33330000     -31.93460000     -71.17950000
H      -44.50130000     -31.23990000     -70.89150000
H      -45.01390000     -32.88540000     -70.68530000
C      -45.78090000     -35.26400000     -71.84110000
H      -46.12400000     -34.65540000     -71.00350000
H      -46.35520000     -36.30670000     -71.82280000
C      -46.08730000     -34.50940000     -73.13440000
C      -46.58450000     -35.17850000     -74.22850000
C      -45.94680000     -33.12630000     -73.44510000
H      -46.91290000     -36.18800000     -74.22660000
C      -46.27990000     -32.78530000     -74.80300000
C      -45.50750000     -31.92450000     -72.68140000
C      -45.50940000     -30.82160000     -73.50280000
S      -46.79890000     -34.18910000     -75.65310000
S      -46.00870000     -31.07100000     -75.15960000
H      -45.18200000     -29.86550000     -73.09180000
