40
Properties=species:S:1:pos:R:3 #=T CELL(abcABC):=T 1.889726e+02=T 90.00000=T Traj:=T positionsangstrom=T Step:=T 0=T Bead:=T pbc="F F F"
C      -46.69780000     -30.81820000     -73.50190000
C      -46.03490000     -30.34050000     -72.33130000
C      -44.62920000     -30.49770000     -72.27960000
C      -43.86820000     -31.16810000     -73.28900000
C      -44.52170000     -31.68790000     -74.36860000
C      -45.84940000     -31.42730000     -74.51270000
H      -47.78630000     -30.77680000     -73.65360000
H      -44.10400000     -30.18500000     -71.37380000
H      -43.97290000     -32.14830000     -75.18120000
H      -46.44970000     -31.80170000     -75.43770000
C      -42.35630000     -31.26020000     -73.18360000
H      -42.00370000     -30.89980000     -72.19250000
H      -41.91280000     -30.72700000     -73.97650000
C      -46.66880000     -29.51860000     -71.22730000
H      -45.97770000     -29.29940000     -70.41290000
H      -47.06740000     -28.57210000     -71.57390000
S      -41.76100000     -32.96670000     -73.47650000
S      -48.08350000     -30.37310000     -70.34320000
C      -42.44480000     -33.97680000     -72.10750000
H      -42.08850000     -34.98280000     -72.40900000
H      -41.93690000     -33.69860000     -71.12470000
C      -47.36710000     -32.02540000     -69.82170000
H      -48.22270000     -32.39070000     -69.23060000
H      -46.53570000     -31.79830000     -69.15060000
C      -47.08490000     -33.14260000     -70.88540000
H      -48.00100000     -33.09390000     -71.55540000
H      -46.18620000     -33.00860000     -71.49120000
C      -43.93810000     -33.88760000     -71.73630000
H      -44.53560000     -33.63680000     -72.62240000
H      -43.99440000     -33.07440000     -71.04220000
C      -44.41240000     -35.07700000     -70.97020000
C      -43.52510000     -36.10630000     -70.70330000
C      -45.70730000     -35.34100000     -70.34720000
H      -42.49100000     -36.25930000     -70.96170000
C      -45.75160000     -36.53270000     -69.66280000
C      -46.91290000     -34.49730000     -70.13910000
C      -47.79150000     -35.05930000     -69.27460000
S      -44.22280000     -37.41510000     -69.80380000
S      -47.26140000     -36.58530000     -68.68290000
H      -48.68240000     -34.54690000     -68.97220000
