40
Properties=species:S:1:pos:R:3 #=T CELL(abcABC):=T 1.889726e+02=T 90.00000=T Traj:=T positionsangstrom=T Step:=T 0=T Bead:=T pbc="F F F"
C      -43.55440000     -32.30570000     -67.86100000
C      -44.89480000     -32.77910000     -68.05190000
C      -45.09190000     -34.21780000     -68.19990000
C      -43.97600000     -34.98400000     -68.49820000
C      -42.67580000     -34.45110000     -68.49460000
C      -42.49150000     -33.15790000     -68.11000000
H      -43.41780000     -31.23230000     -67.51340000
H      -46.09830000     -34.61670000     -68.10460000
H      -41.74180000     -34.96070000     -68.72620000
H      -41.47720000     -32.65010000     -68.03530000
C      -44.30700000     -36.37160000     -68.94330000
H      -45.46520000     -36.45130000     -68.86760000
H      -44.04840000     -37.02890000     -68.18120000
C      -46.06980000     -31.85100000     -67.63960000
H      -46.99810000     -32.45250000     -67.29860000
H      -45.76440000     -31.22930000     -66.78410000
S      -43.64910000     -36.85930000     -70.58220000
S      -46.67900000     -30.72770000     -69.00950000
C      -44.05850000     -35.32900000     -71.51710000
H      -43.69650000     -34.34600000     -71.12010000
H      -43.58560000     -35.49950000     -72.55790000
C      -46.67530000     -31.78820000     -70.43500000
H      -47.50020000     -31.45290000     -71.11390000
H      -46.86160000     -32.83200000     -70.18870000
C      -45.29630000     -31.66320000     -71.18440000
H      -44.73400000     -30.74050000     -71.02440000
H      -44.80480000     -32.57100000     -70.81240000
C      -45.63750000     -35.18630000     -71.67820000
H      -46.16200000     -34.61090000     -70.85030000
H      -46.07780000     -36.12990000     -71.66260000
C      -46.10170000     -34.45740000     -72.92880000
C      -46.61080000     -35.16640000     -74.00130000
C      -45.83570000     -33.05240000     -73.35490000
H      -46.77820000     -36.24930000     -73.95660000
C      -46.16410000     -32.82620000     -74.68330000
C      -45.50830000     -31.78750000     -72.68410000
C      -45.67400000     -30.68420000     -73.48430000
S      -46.83190000     -34.22410000     -75.52990000
S      -46.05780000     -31.14950000     -75.16390000
H      -45.48610000     -29.65860000     -73.27000000
