40
Properties=species:S:1:pos:R:3 #=T CELL(abcABC):=T 1.889726e+02=T 90.00000=T Traj:=T positionsangstrom=T Step:=T 0=T Bead:=T pbc="F F F"
C      -43.59270000     -32.26850000     -67.83480000
C      -44.94140000     -32.81550000     -67.85560000
C      -45.17870000     -34.12160000     -68.31750000
C      -44.01750000     -34.90800000     -68.55990000
C      -42.75370000     -34.42310000     -68.49350000
C      -42.53870000     -33.11770000     -68.09280000
H      -43.33590000     -31.22110000     -67.55780000
H      -46.21860000     -34.36080000     -68.44220000
H      -41.89470000     -35.06350000     -68.69290000
H      -41.51470000     -32.73320000     -68.01210000
C      -44.18760000     -36.31410000     -68.93270000
H      -45.17960000     -36.75960000     -68.85500000
H      -43.53150000     -36.95530000     -68.19080000
C      -46.11260000     -31.97520000     -67.50890000
H      -46.85730000     -32.63740000     -67.16850000
H      -45.85700000     -31.22830000     -66.73410000
S      -43.56940000     -36.64740000     -70.69770000
S      -46.70750000     -30.87990000     -68.79830000
C      -44.05060000     -35.20690000     -71.69480000
H      -43.60900000     -34.28880000     -71.38360000
H      -43.67340000     -35.43600000     -72.66820000
C      -46.77410000     -31.83140000     -70.44640000
H      -47.63020000     -31.34570000     -70.99320000
H      -47.00920000     -32.88610000     -70.29770000
C      -45.31740000     -31.76060000     -71.18070000
H      -44.73210000     -30.85910000     -70.81170000
H      -44.66680000     -32.54790000     -70.75670000
C      -45.60070000     -35.10950000     -71.70630000
H      -45.82180000     -34.42460000     -70.79950000
H      -46.11530000     -35.98560000     -71.39110000
C      -46.04490000     -34.48610000     -72.95970000
C      -46.42440000     -35.19220000     -74.08460000
C      -45.94740000     -33.05820000     -73.33090000
H      -46.64370000     -36.28060000     -74.07900000
C      -46.34680000     -32.81670000     -74.66130000
C      -45.45370000     -31.82330000     -72.71360000
C      -45.47570000     -30.75770000     -73.55190000
S      -46.86460000     -34.25350000     -75.51540000
S      -46.06440000     -31.20510000     -75.20270000
H      -45.17680000     -29.75960000     -73.40480000
