40
Properties=species:S:1:pos:R:3 #=T CELL(abcABC):=T 1.889726e+02=T 90.00000=T Traj:=T positionsangstrom=T Step:=T 0=T Bead:=T pbc="F F F"
C      -46.57280000     -30.56750000     -73.44780000
C      -46.09200000     -30.08060000     -72.23100000
C      -44.66380000     -30.25610000     -72.00480000
C      -43.76130000     -30.85630000     -72.88550000
C      -44.35670000     -31.36800000     -74.05100000
C      -45.71000000     -31.17110000     -74.33700000
H      -47.62290000     -30.41510000     -73.68120000
H      -44.29450000     -29.95120000     -70.99800000
H      -43.81940000     -31.90340000     -74.79770000
H      -46.13950000     -31.55560000     -75.22980000
C      -42.27980000     -30.94070000     -72.65510000
H      -42.07730000     -30.74960000     -71.61640000
H      -41.69540000     -30.19190000     -73.18140000
C      -47.06690000     -29.49710000     -71.20470000
H      -46.48900000     -29.12090000     -70.39270000
H      -47.67090000     -28.67490000     -71.54730000
S      -41.69650000     -32.62400000     -73.17550000
S      -48.33800000     -30.68160000     -70.64980000
C      -42.41110000     -33.78300000     -71.79630000
H      -41.76820000     -34.69390000     -71.90920000
H      -42.15220000     -33.38980000     -70.79100000
C      -47.31970000     -32.08080000     -70.05900000
H      -47.90790000     -32.47340000     -69.14390000
H      -46.44250000     -31.68680000     -69.53570000
C      -46.93430000     -33.23040000     -71.04160000
H      -47.68230000     -33.42250000     -71.82540000
H      -46.04090000     -32.93140000     -71.64790000
C      -43.89280000     -34.07900000     -71.88420000
H      -44.24540000     -34.27420000     -72.87780000
H      -44.35560000     -33.15400000     -71.58870000
C      -44.29550000     -35.23880000     -71.03450000
C      -43.49110000     -36.36290000     -70.80830000
C      -45.63380000     -35.42050000     -70.45540000
H      -42.49120000     -36.54160000     -71.25450000
C      -45.75390000     -36.64040000     -69.77170000
C      -46.78830000     -34.58330000     -70.26600000
C      -47.76800000     -35.19210000     -69.50960000
S      -44.29450000     -37.61780000     -69.84780000
S      -47.29600000     -36.82390000     -68.99960000
H      -48.80970000     -34.92630000     -69.39350000
