40
Properties=species:S:1:pos:R:3 #=T CELL(abcABC):=T 1.889726e+02=T 90.00000=T Traj:=T positionsangstrom=T Step:=T 0=T Bead:=T pbc="F F F"
C      -43.64500000     -32.25450000     -67.66940000
C      -44.95520000     -32.76330000     -67.82660000
C      -45.14240000     -34.07720000     -68.36290000
C      -44.01960000     -34.93390000     -68.49640000
C      -42.69980000     -34.39950000     -68.42130000
C      -42.51760000     -33.05090000     -68.07050000
H      -43.60760000     -31.24250000     -67.27220000
H      -46.14820000     -34.47730000     -68.51930000
H      -41.89380000     -35.06470000     -68.39360000
H      -41.50360000     -32.66250000     -68.08330000
C      -44.24540000     -36.44970000     -68.80390000
H      -45.24020000     -36.65300000     -68.50910000
H      -43.63420000     -37.11870000     -68.17930000
C      -46.05090000     -31.81100000     -67.53000000
H      -47.00690000     -32.31650000     -67.45690000
H      -45.98880000     -31.41130000     -66.48580000
S      -43.96380000     -36.91780000     -70.54670000
S      -46.10510000     -30.42410000     -68.81930000
C      -44.40710000     -35.42780000     -71.59030000
H      -44.04600000     -34.52030000     -71.05630000
H      -44.00520000     -35.54040000     -72.58040000
C      -46.43920000     -31.41710000     -70.35940000
H      -47.10390000     -30.87660000     -71.05140000
H      -47.09170000     -32.23910000     -70.11280000
C      -45.23830000     -31.89870000     -71.15160000
H      -44.44760000     -31.14800000     -71.07340000
H      -44.81390000     -32.85570000     -70.85370000
C      -45.88790000     -35.29950000     -71.88590000
H      -46.37390000     -34.81360000     -71.10710000
H      -46.35540000     -36.21880000     -71.85750000
C      -46.12160000     -34.62390000     -73.22600000
C      -46.59280000     -35.31940000     -74.32830000
C      -45.97910000     -33.24610000     -73.39880000
H      -46.79260000     -36.32970000     -74.45770000
C      -46.27890000     -32.86090000     -74.73070000
C      -45.62940000     -32.04070000     -72.67330000
C      -45.70010000     -30.89390000     -73.41900000
S      -46.75820000     -34.18120000     -75.69830000
S      -46.01800000     -31.14930000     -75.14970000
H      -45.45260000     -29.94090000     -72.97350000
