40
Properties=species:S:1:pos:R:3 #=T CELL(abcABC):=T 1.889726e+02=T 90.00000=T Traj:=T positionsangstrom=T Step:=T 0=T Bead:=T pbc="F F F"
C      -43.29480000     -32.42430000     -67.91090000
C      -44.67310000     -32.80370000     -67.96580000
C      -45.11220000     -34.11630000     -68.21870000
C      -44.16630000     -35.11580000     -68.41510000
C      -42.78250000     -34.78300000     -68.30100000
C      -42.34970000     -33.47660000     -67.93080000
H      -43.11450000     -31.35610000     -67.80870000
H      -46.20380000     -34.33500000     -68.24210000
H      -42.05610000     -35.60820000     -68.41290000
H      -41.32590000     -33.31170000     -67.64040000
C      -44.54990000     -36.52910000     -68.87590000
H      -45.63160000     -36.56140000     -68.87770000
H      -44.23030000     -37.30510000     -68.17490000
C      -45.85050000     -31.75660000     -67.84080000
H      -46.79440000     -32.31350000     -67.99950000
H      -45.73320000     -31.27580000     -66.88990000
S      -43.87710000     -36.90950000     -70.49890000
S      -45.91110000     -30.20460000     -68.82780000
C      -44.30430000     -35.50300000     -71.62070000
H      -43.83260000     -34.57610000     -71.35420000
H      -43.84110000     -35.78510000     -72.56320000
C      -46.51050000     -30.78190000     -70.47970000
H      -46.53300000     -29.82560000     -71.01470000
H      -47.51540000     -31.18630000     -70.32570000
C      -45.57250000     -31.75760000     -71.20120000
H      -44.47120000     -31.42590000     -71.09820000
H      -45.59610000     -32.79170000     -70.74300000
C      -45.82000000     -35.11560000     -71.73930000
H      -45.95380000     -34.37970000     -70.92140000
H      -46.34130000     -36.08330000     -71.70990000
C      -46.22810000     -34.51770000     -73.07200000
C      -46.52430000     -35.34110000     -74.17060000
C      -46.20100000     -33.15370000     -73.42320000
H      -46.69730000     -36.41760000     -74.13280000
C      -46.30320000     -32.92290000     -74.73200000
C      -45.93820000     -31.92670000     -72.68980000
C      -45.85900000     -30.83150000     -73.51470000
S      -46.76920000     -34.33440000     -75.57570000
S      -46.10570000     -31.22550000     -75.21650000
H      -45.59580000     -29.78210000     -73.26030000
