40
Properties=species:S:1:pos:R:3 #=T CELL(abcABC):=T 1.889726e+02=T 90.00000=T Traj:=T positionsangstrom=T Step:=T 0=T Bead:=T pbc="F F F"
C      -42.24420000     -31.93110000     -73.40500000
C      -43.05340000     -32.88990000     -72.71890000
C      -43.86820000     -32.42320000     -71.61170000
C      -43.82700000     -31.07890000     -71.21600000
C      -43.10350000     -30.09280000     -71.97140000
C      -42.36200000     -30.52160000     -73.07260000
H      -41.68090000     -32.17130000     -74.22920000
H      -44.43310000     -33.03640000     -70.94780000
H      -43.17320000     -29.06100000     -71.69460000
H      -41.66630000     -29.88130000     -73.66300000
C      -44.54160000     -30.67630000     -69.97650000
H      -44.05110000     -29.94520000     -69.37310000
H      -44.72430000     -31.48360000     -69.33190000
C      -43.11990000     -34.29100000     -73.11520000
H      -42.25880000     -34.60170000     -73.63280000
H      -43.26350000     -34.80180000     -72.20800000
S      -46.19120000     -30.01620000     -70.45290000
S      -44.39890000     -34.67700000     -74.49860000
C      -46.94510000     -31.04910000     -71.75110000
H      -47.55750000     -30.35820000     -72.38910000
H      -46.11640000     -31.14780000     -72.45940000
C      -46.01690000     -34.17280000     -73.65080000
H      -46.55730000     -33.63870000     -74.40220000
H      -45.75540000     -33.41640000     -72.86380000
C      -46.89070000     -35.32730000     -73.05570000
H      -47.95810000     -34.95640000     -73.06390000
H      -46.85340000     -36.23840000     -73.68010000
C      -47.62440000     -32.45050000     -71.39190000
H      -47.65170000     -33.07150000     -72.30960000
H      -48.66960000     -32.27520000     -70.96110000
C      -46.97640000     -33.32060000     -70.34940000
C      -47.03170000     -32.97550000     -68.99730000
C      -46.56930000     -34.70240000     -70.52380000
H      -47.41810000     -31.99630000     -68.79320000
C      -46.10840000     -35.33580000     -69.37780000
C      -46.39680000     -35.61070000     -71.65960000
C      -45.82170000     -36.78510000     -71.34460000
S      -46.39860000     -34.24160000     -67.96310000
S      -45.38050000     -36.90410000     -69.64810000
H      -45.52950000     -37.61600000     -71.94410000
