40
Properties=species:S:1:pos:R:3 #=T CELL(abcABC):=T 1.889726e+02=T 90.00000=T Traj:=T positionsangstrom=T Step:=T 0=T Bead:=T pbc="F F F"
C      -44.61350000     -33.18920000     -67.98590000
C      -45.68740000     -32.34400000     -68.40260000
C      -46.85230000     -32.91660000     -68.87960000
C      -47.03170000     -34.33290000     -68.91410000
C      -46.04050000     -35.14850000     -68.37770000
C      -44.85250000     -34.57080000     -67.92850000
H      -43.72330000     -32.74670000     -67.51180000
H      -47.68430000     -32.25110000     -69.05390000
H      -46.21590000     -36.18380000     -68.30090000
H      -43.93390000     -35.24250000     -67.57750000
C      -48.31550000     -34.85040000     -69.53900000
H      -48.68610000     -34.10440000     -70.27800000
H      -49.10210000     -34.95430000     -68.77910000
C      -45.46960000     -30.88330000     -68.08310000
H      -46.17410000     -30.60620000     -67.26320000
H      -44.45790000     -30.67360000     -67.61940000
S      -48.08140000     -36.39920000     -70.41230000
S      -45.78840000     -29.72970000     -69.42000000
C      -46.60270000     -36.13780000     -71.48990000
H      -45.73200000     -36.39910000     -70.91620000
H      -46.68970000     -36.88560000     -72.26790000
C      -44.76820000     -30.36610000     -70.86840000
H      -43.72960000     -30.30380000     -70.69910000
H      -45.01910000     -29.57790000     -71.58900000
C      -45.27260000     -31.66400000     -71.44110000
H      -45.01200000     -32.45890000     -70.60380000
H      -46.27320000     -31.76040000     -71.83400000
C      -46.45660000     -34.70140000     -72.02570000
H      -46.03320000     -34.07490000     -71.24870000
H      -47.38790000     -34.26090000     -72.40470000
C      -45.39120000     -34.57970000     -73.10020000
C      -45.09860000     -35.46600000     -74.11370000
C      -44.49380000     -33.41070000     -73.20420000
H      -45.54910000     -36.40630000     -74.30050000
C      -43.53430000     -33.53630000     -74.20440000
C      -44.34820000     -32.12950000     -72.53760000
C      -43.28740000     -31.37190000     -73.01150000
S      -43.66190000     -35.08880000     -75.07900000
S      -42.44740000     -32.08490000     -74.34110000
H      -43.04300000     -30.41710000     -72.59480000
