40
Properties=species:S:1:pos:R:3 #=T CELL(abcABC):=T 1.889726e+02=T 90.00000=T Traj:=T positionsangstrom=T Step:=T 0=T Bead:=T pbc="F F F"
C      -43.21280000     -32.73170000     -67.45800000
C      -44.54930000     -32.67170000     -67.82980000
C      -45.11230000     -33.84980000     -68.39420000
C      -44.32480000     -35.00210000     -68.56450000
C      -42.91570000     -34.95120000     -68.31000000
C      -42.36610000     -33.80390000     -67.75050000
H      -42.80090000     -31.93290000     -66.86140000
H      -46.24620000     -33.91220000     -68.53130000
H      -42.19070000     -35.74010000     -68.43850000
H      -41.40290000     -33.72960000     -67.36320000
C      -44.84010000     -36.30570000     -68.98840000
H      -45.86490000     -36.18030000     -69.19760000
H      -44.77230000     -37.10430000     -68.19600000
C      -45.34300000     -31.48270000     -67.63280000
H      -46.41530000     -31.74840000     -67.62540000
H      -45.16460000     -31.04240000     -66.63720000
S      -44.07790000     -36.95760000     -70.51670000
S      -45.07920000     -30.22410000     -68.95140000
C      -44.40370000     -35.58580000     -71.68460000
H      -43.84910000     -34.62670000     -71.57070000
H      -44.02590000     -35.98660000     -72.69480000
C      -46.02450000     -30.84300000     -70.41250000
H      -46.47000000     -29.94030000     -70.89460000
H      -46.93260000     -31.33800000     -70.09160000
C      -45.15570000     -31.71310000     -71.35700000
H      -44.12060000     -31.27620000     -71.53660000
H      -45.00060000     -32.66410000     -70.84610000
C      -45.85110000     -35.26250000     -71.81330000
H      -46.14040000     -34.67420000     -70.91200000
H      -46.40960000     -36.28250000     -71.79100000
C      -46.13300000     -34.55490000     -73.14340000
C      -46.62260000     -35.27720000     -74.17770000
C      -46.11330000     -33.12370000     -73.42930000
H      -46.79430000     -36.36830000     -74.19910000
C      -46.65180000     -32.90500000     -74.68330000
C      -45.83660000     -31.92030000     -72.72740000
C      -46.09590000     -30.82230000     -73.50820000
S      -46.95840000     -34.29130000     -75.66950000
S      -46.75900000     -31.22010000     -75.08600000
H      -45.94940000     -29.76600000     -73.28480000
