40
Properties=species:S:1:pos:R:3 #=T CELL(abcABC):=T 1.889726e+02=T 90.00000=T Traj:=T positionsangstrom=T Step:=T 0=T Bead:=T pbc="F F F"
C      -43.34450000     -32.51300000     -67.34740000
C      -44.66940000     -32.74460000     -67.67470000
C      -45.14610000     -33.95090000     -68.22860000
C      -44.18970000     -34.95920000     -68.37530000
C      -42.88320000     -34.71330000     -68.06950000
C      -42.41790000     -33.49330000     -67.59810000
H      -42.95500000     -31.62230000     -66.81980000
H      -46.16070000     -34.05740000     -68.52150000
H      -42.30030000     -35.63310000     -68.11510000
H      -41.39650000     -33.38260000     -67.18800000
C      -44.59640000     -36.39830000     -68.94410000
H      -45.72040000     -36.45700000     -68.99740000
H      -44.26120000     -37.21530000     -68.23340000
C      -45.59740000     -31.59170000     -67.64610000
H      -46.69700000     -31.91450000     -67.72670000
H      -45.50480000     -30.99180000     -66.75910000
S      -43.88500000     -36.75700000     -70.55040000
S      -45.32530000     -30.44590000     -69.11740000
C      -44.45110000     -35.40230000     -71.63330000
H      -43.88010000     -34.45400000     -71.41810000
H      -44.27600000     -35.65090000     -72.62210000
C      -46.10950000     -31.18800000     -70.61940000
H      -46.53810000     -30.32930000     -71.12270000
H      -46.83380000     -31.99680000     -70.38660000
C      -44.96920000     -31.72420000     -71.50620000
H      -44.18550000     -30.95620000     -71.45060000
H      -44.54700000     -32.65970000     -71.10870000
C      -45.92950000     -35.14150000     -71.67050000
H      -46.18460000     -34.52870000     -70.79890000
H      -46.41040000     -36.06670000     -71.64600000
C      -46.25140000     -34.50710000     -73.02470000
C      -46.58450000     -35.31820000     -74.11260000
C      -46.28060000     -33.10010000     -73.37440000
H      -46.82200000     -36.37980000     -74.13130000
C      -46.80240000     -32.92070000     -74.66850000
C      -45.59730000     -31.88290000     -72.92300000
C      -45.79080000     -30.79780000     -73.78060000
S      -47.13890000     -34.38450000     -75.50530000
S      -46.51610000     -31.28440000     -75.29890000
H      -45.46820000     -29.80430000     -73.67180000
