40
Properties=species:S:1:pos:R:3 #=T CELL(abcABC):=T 1.889726e+02=T 90.00000=T Traj:=T positionsangstrom=T Step:=T 0=T Bead:=T pbc="F F F"
C      -43.10550000     -32.70090000     -67.49830000
C      -44.45940000     -32.71230000     -67.88560000
C      -45.05690000     -33.88290000     -68.36230000
C      -44.25640000     -35.04010000     -68.47180000
C      -42.99440000     -35.05550000     -67.94370000
C      -42.41360000     -33.86030000     -67.53910000
H      -42.53540000     -31.83860000     -67.26420000
H      -46.12390000     -33.76360000     -68.72640000
H      -42.42970000     -35.97260000     -67.98890000
H      -41.41900000     -33.88690000     -67.20820000
C      -44.91120000     -36.28280000     -69.13890000
H      -45.97790000     -36.14070000     -69.45970000
H      -44.88640000     -37.08630000     -68.36350000
C      -45.28740000     -31.42230000     -67.67820000
H      -46.36570000     -31.52210000     -67.56030000
H      -44.90030000     -30.86500000     -66.78280000
S      -43.94830000     -36.96410000     -70.61990000
S      -45.15350000     -30.14940000     -68.99390000
C      -44.35250000     -35.60920000     -71.80990000
H      -43.72720000     -34.73750000     -71.59100000
H      -44.06040000     -36.01560000     -72.71120000
C      -46.10850000     -30.88110000     -70.39470000
H      -46.52370000     -30.02340000     -70.95760000
H      -46.81870000     -31.56680000     -69.98330000
C      -45.24720000     -31.70990000     -71.38430000
H      -44.41540000     -31.07390000     -71.58120000
H      -44.88980000     -32.63820000     -70.94550000
C      -45.78770000     -35.21340000     -71.79570000
H      -45.86620000     -34.56390000     -70.99160000
H      -46.49830000     -35.99300000     -71.70730000
C      -46.20690000     -34.54440000     -73.14380000
C      -46.70500000     -35.29230000     -74.15870000
C      -46.16100000     -33.14980000     -73.44870000
H      -46.94710000     -36.32010000     -74.15130000
C      -46.61070000     -32.90400000     -74.76800000
C      -45.88550000     -31.92410000     -72.74030000
C      -46.12290000     -30.81780000     -73.48960000
S      -47.07100000     -34.35470000     -75.56330000
S      -46.66320000     -31.16620000     -75.10960000
H      -45.95430000     -29.82680000     -73.22580000
