40
Properties=species:S:1:pos:R:3 #=T CELL(abcABC):=T 1.889726e+02=T 90.00000=T Traj:=T positionsangstrom=T Step:=T 0=T Bead:=T pbc="F F F"
C      -46.61960000     -30.21440000     -73.87620000
C      -46.69540000     -31.58450000     -74.11600000
C      -45.54690000     -32.36320000     -74.18850000
C      -44.26650000     -31.73350000     -74.01980000
C      -44.19220000     -30.38250000     -73.77330000
C      -45.39650000     -29.60520000     -73.76440000
H      -47.47580000     -29.73200000     -73.82420000
H      -45.68700000     -33.45660000     -74.40310000
H      -43.23240000     -29.91640000     -73.71150000
H      -45.33070000     -28.54220000     -73.79140000
C      -42.99440000     -32.61030000     -73.90710000
H      -42.09890000     -31.96530000     -73.95850000
H      -42.94500000     -33.38280000     -74.74520000
C      -48.06710000     -32.20450000     -74.33750000
H      -48.80360000     -31.50130000     -74.88850000
H      -47.96960000     -33.09960000     -74.95470000
S      -42.90940000     -33.69630000     -72.40920000
S      -48.97470000     -32.74830000     -72.79490000
C      -42.57520000     -32.35140000     -71.17310000
H      -41.72750000     -32.61690000     -70.57490000
H      -42.27660000     -31.49440000     -71.73650000
C      -48.05380000     -34.09120000     -72.01690000
H      -48.01360000     -34.72510000     -72.87840000
H      -48.71800000     -34.51720000     -71.28060000
C      -46.77270000     -33.63820000     -71.34020000
H      -46.03240000     -33.28270000     -72.07300000
H      -47.09380000     -32.88050000     -70.65300000
C      -43.67980000     -32.14890000     -70.14110000
H      -44.52830000     -31.66400000     -70.68710000
H      -43.25050000     -31.37790000     -69.42520000
C      -43.99510000     -33.34520000     -69.38600000
C      -43.12730000     -33.63780000     -68.25600000
C      -44.94240000     -34.43590000     -69.56880000
H      -42.28250000     -33.02420000     -67.93660000
C      -44.82970000     -35.38050000     -68.49750000
C      -46.09170000     -34.70450000     -70.40900000
C      -46.82820000     -35.81300000     -69.94550000
S      -43.59780000     -35.03700000     -67.32580000
S      -46.07670000     -36.57090000     -68.58770000
H      -47.74570000     -36.31840000     -70.36080000
