40
Properties=species:S:1:pos:R:3 #=T CELL(abcABC):=T 1.889726e+02=T 90.00000=T Traj:=T positionsangstrom=T Step:=T 0=T Bead:=T pbc="F F F"
C      -46.04530000     -30.25540000     -73.51870000
C      -45.66390000     -30.97500000     -72.38580000
C      -46.14380000     -32.27690000     -72.26690000
C      -46.87740000     -32.90510000     -73.25590000
C      -47.10970000     -32.19290000     -74.45520000
C      -46.68320000     -30.88030000     -74.59080000
H      -45.64750000     -29.24670000     -73.54020000
H      -46.07900000     -32.79230000     -71.37180000
H      -47.63830000     -32.68730000     -75.26400000
H      -47.02380000     -30.29680000     -75.49290000
C      -47.27400000     -34.31010000     -73.35220000
H      -48.28510000     -34.48170000     -73.75480000
H      -47.21340000     -34.80790000     -72.38050000
C      -44.80830000     -30.34110000     -71.25700000
H      -44.92540000     -29.27270000     -71.34940000
H      -44.98440000     -30.80100000     -70.27780000
S      -46.03320000     -35.23330000     -74.39580000
S      -43.01800000     -30.54070000     -71.62530000
C      -45.10220000     -36.37530000     -73.09280000
H      -45.83930000     -37.05060000     -72.77670000
H      -44.33420000     -36.91090000     -73.63680000
C      -42.78000000     -32.32160000     -71.73990000
H      -41.80580000     -32.39240000     -72.23390000
H      -43.54570000     -32.81070000     -72.32210000
C      -42.63580000     -33.12780000     -70.36380000
H      -42.15810000     -34.07890000     -70.66100000
H      -41.94250000     -32.53640000     -69.76850000
C      -44.41730000     -35.61720000     -71.94810000
H      -44.16570000     -34.54390000     -72.25880000
H      -43.45190000     -36.13510000     -71.76480000
C      -45.18900000     -35.45040000     -70.72040000
C      -46.24010000     -36.19970000     -70.31980000
C      -44.96300000     -34.33630000     -69.81950000
H      -46.58930000     -37.12950000     -70.78000000
C      -45.81110000     -34.35500000     -68.72550000
C      -43.82090000     -33.45020000     -69.54930000
C      -44.00390000     -32.72090000     -68.40310000
S      -46.94850000     -35.66180000     -68.83170000
S      -45.41720000     -33.16410000     -67.49830000
H      -43.43310000     -31.86510000     -68.18900000
