40
Properties=species:S:1:pos:R:3 #=T CELL(abcABC):=T 1.889726e+02=T 90.00000=T Traj:=T positionsangstrom=T Step:=T 0=T Bead:=T pbc="F F F"
C      -45.78520000     -30.31360000     -73.63070000
C      -45.49860000     -31.00940000     -72.44130000
C      -46.05600000     -32.23600000     -72.31050000
C      -46.82280000     -32.88820000     -73.31980000
C      -47.14340000     -32.17270000     -74.47900000
C      -46.67290000     -30.83590000     -74.56060000
H      -45.39210000     -29.38510000     -73.73690000
H      -45.78210000     -32.75350000     -71.43630000
H      -47.68980000     -32.64500000     -75.23330000
H      -47.04600000     -30.20200000     -75.43670000
C      -47.16890000     -34.28490000     -73.08620000
H      -48.21010000     -34.44420000     -73.29220000
H      -47.01370000     -34.58450000     -72.05600000
C      -44.74720000     -30.37490000     -71.32210000
H      -45.00550000     -29.29300000     -71.26940000
H      -45.17080000     -30.85600000     -70.36640000
S      -46.21760000     -35.41260000     -74.27210000
S      -42.96040000     -30.59510000     -71.53660000
C      -45.13260000     -36.50180000     -73.10180000
H      -45.81360000     -37.28360000     -72.63860000
H      -44.38590000     -36.99250000     -73.78930000
C      -42.79820000     -32.41800000     -71.73900000
H      -41.82210000     -32.49820000     -72.28900000
H      -43.54830000     -32.77350000     -72.43690000
C      -42.61180000     -33.23590000     -70.45990000
H      -42.30600000     -34.22550000     -70.73290000
H      -41.81810000     -32.86070000     -69.85370000
C      -44.40810000     -35.68800000     -71.98020000
H      -44.11750000     -34.80200000     -72.44140000
H      -43.53680000     -36.22300000     -71.58960000
C      -45.21430000     -35.40010000     -70.71810000
C      -46.38900000     -36.09990000     -70.41530000
C      -44.88400000     -34.39250000     -69.73260000
H      -46.88960000     -36.92330000     -70.88090000
C      -45.81240000     -34.28830000     -68.69660000
C      -43.82780000     -33.39300000     -69.57160000
C      -43.98380000     -32.63050000     -68.42610000
S      -47.04340000     -35.45290000     -68.93010000
S      -45.43310000     -33.08320000     -67.53870000
H      -43.24460000     -32.01940000     -67.98370000
