40
Properties=species:S:1:pos:R:3 #=T CELL(abcABC):=T 1.889726e+02=T 90.00000=T Traj:=T positionsangstrom=T Step:=T 0=T Bead:=T pbc="F F F"
C      -45.52400000     -33.20760000     -67.54670000
C      -46.59000000     -32.52330000     -68.17540000
C      -47.54010000     -33.25070000     -69.02270000
C      -47.47790000     -34.66380000     -68.99980000
C      -46.43770000     -35.36230000     -68.24460000
C      -45.38100000     -34.62510000     -67.72030000
H      -44.74940000     -32.60330000     -67.06860000
H      -48.33850000     -32.81000000     -69.62210000
H      -46.31310000     -36.47460000     -68.23440000
H      -44.51680000     -35.12260000     -67.36980000
C      -48.44620000     -35.49950000     -69.85870000
H      -49.22600000     -34.82150000     -70.29710000
H      -49.02530000     -36.24240000     -69.23310000
C      -46.72600000     -31.04200000     -68.00840000
H      -47.67090000     -30.84530000     -67.56200000
H      -45.99890000     -30.58860000     -67.26250000
S      -47.65150000     -36.50580000     -71.20820000
S      -46.68680000     -30.20070000     -69.63930000
C      -46.18480000     -35.56290000     -71.54440000
H      -45.78180000     -35.10200000     -70.65710000
H      -45.47840000     -36.34510000     -71.91900000
C      -45.03010000     -30.55370000     -70.36890000
H      -44.20050000     -30.37950000     -69.67910000
H      -44.90640000     -29.81300000     -71.18550000
C      -44.93400000     -31.87840000     -71.05030000
H      -45.06800000     -32.69980000     -70.39060000
H      -45.84860000     -31.89680000     -71.63910000
C      -46.31780000     -34.40070000     -72.59820000
H      -46.66540000     -33.45370000     -72.06720000
H      -47.12210000     -34.52920000     -73.35950000
C      -45.05250000     -34.11600000     -73.40650000
C      -44.69380000     -34.97500000     -74.45010000
C      -44.01420000     -33.14490000     -73.15790000
H      -45.13170000     -35.89800000     -74.75750000
C      -43.00610000     -33.16280000     -74.08540000
C      -43.89120000     -32.08320000     -72.15020000
C      -42.65540000     -31.47750000     -72.35320000
S      -43.11740000     -34.58050000     -75.20910000
S      -41.73030000     -32.01560000     -73.72520000
H      -42.34710000     -30.51230000     -71.97050000
