40
Properties=species:S:1:pos:R:3 #=T CELL(abcABC):=T 1.889726e+02=T 90.00000=T Traj:=T positionsangstrom=T Step:=T 0=T Bead:=T pbc="F F F"
C      -45.76620000     -33.69710000     -67.34650000
C      -46.61140000     -32.84530000     -68.02970000
C      -47.40950000     -33.35650000     -69.12090000
C      -47.51880000     -34.68850000     -69.45750000
C      -46.63330000     -35.58790000     -68.68800000
C      -45.75280000     -35.08720000     -67.68960000
H      -45.15230000     -33.45700000     -66.48390000
H      -47.99480000     -32.58450000     -69.59940000
H      -46.76980000     -36.71900000     -68.86310000
H      -45.06960000     -35.68330000     -67.08710000
C      -48.39570000     -35.06780000     -70.57010000
H      -48.58890000     -34.15410000     -71.15060000
H      -49.46560000     -35.26950000     -70.31910000
C      -46.71710000     -31.38620000     -67.70990000
H      -47.52940000     -31.17300000     -66.97130000
H      -45.84210000     -31.09380000     -67.15920000
S      -47.82710000     -36.35100000     -71.74090000
S      -46.89930000     -30.29050000     -69.21990000
C      -46.18280000     -35.66440000     -72.27360000
H      -45.65470000     -35.20150000     -71.43400000
H      -45.69570000     -36.46260000     -72.64260000
C      -45.36720000     -30.64650000     -70.14900000
H      -44.48930000     -30.73200000     -69.50560000
H      -45.11120000     -29.66410000     -70.62350000
C      -45.44900000     -31.84740000     -71.29820000
H      -45.76790000     -32.75080000     -70.80220000
H      -46.22840000     -31.63060000     -71.96840000
C      -46.15950000     -34.44420000     -73.26670000
H      -46.58260000     -33.58740000     -72.71060000
H      -46.68680000     -34.60080000     -74.22150000
C      -44.73850000     -34.25700000     -73.58590000
C      -44.04050000     -35.06460000     -74.43350000
C      -43.95650000     -33.11250000     -73.11600000
H      -44.31250000     -35.81610000     -75.05480000
C      -42.74800000     -33.04070000     -73.70210000
C      -44.13270000     -32.01820000     -72.17140000
C      -43.12090000     -31.15880000     -72.17330000
S      -42.38510000     -34.36930000     -74.75140000
S      -41.72650000     -31.73230000     -73.18020000
H      -43.00970000     -30.18410000     -71.66330000
