40
Properties=species:S:1:pos:R:3 #=T CELL(abcABC):=T 1.889726e+02=T 90.00000=T Traj:=T positionsangstrom=T Step:=T 0=T Bead:=T pbc="F F F"
C      -45.87970000     -33.83740000     -67.54460000
C      -46.71110000     -32.93730000     -68.21890000
C      -47.61500000     -33.41310000     -69.13860000
C      -47.63950000     -34.77100000     -69.50520000
C      -46.66690000     -35.62460000     -68.97730000
C      -45.83070000     -35.16000000     -67.94410000
H      -45.14950000     -33.46380000     -66.85720000
H      -48.27700000     -32.75740000     -69.73100000
H      -46.53090000     -36.67600000     -69.39660000
H      -45.08160000     -35.78280000     -67.45370000
C      -48.71770000     -35.34670000     -70.44290000
H      -49.32980000     -34.60550000     -70.93200000
H      -49.32620000     -36.04430000     -69.74680000
C      -46.57670000     -31.45740000     -67.90740000
H      -47.52960000     -31.26330000     -67.35690000
H      -45.71940000     -31.32260000     -67.28570000
S      -47.92320000     -36.35400000     -71.77450000
S      -46.63570000     -30.31480000     -69.29440000
C      -46.20640000     -35.69940000     -72.02910000
H      -45.71090000     -35.42580000     -71.08070000
H      -45.68960000     -36.68010000     -72.27550000
C      -45.07990000     -30.67020000     -70.12660000
H      -44.31960000     -31.02640000     -69.42690000
H      -44.72420000     -29.75640000     -70.59280000
C      -45.30990000     -31.77480000     -71.20800000
H      -45.55030000     -32.72670000     -70.65740000
H      -46.21970000     -31.52450000     -71.84010000
C      -46.15400000     -34.59900000     -73.16430000
H      -46.82190000     -33.77100000     -72.88210000
H      -46.53030000     -34.98690000     -74.11490000
C      -44.77090000     -34.18490000     -73.56420000
C      -44.05890000     -34.88200000     -74.56940000
C      -44.00900000     -33.05380000     -73.03910000
H      -44.13620000     -35.80260000     -74.96240000
C      -42.71150000     -32.92260000     -73.62380000
C      -44.07360000     -31.94250000     -72.02150000
C      -43.00650000     -31.11910000     -71.97350000
S      -42.44150000     -34.24880000     -74.67900000
S      -41.73890000     -31.56750000     -73.07490000
H      -42.66590000     -30.28920000     -71.29530000
