40
Properties=species:S:1:pos:R:3 #=T CELL(abcABC):=T 1.889726e+02=T 90.00000=T Traj:=T positionsangstrom=T Step:=T 0=T Bead:=T pbc="F F F"
C      -46.05000000     -34.32130000     -67.70000000
C      -46.88240000     -33.38410000     -68.27630000
C      -47.82020000     -33.72660000     -69.27160000
C      -47.87640000     -35.01720000     -69.80690000
C      -46.96100000     -35.92720000     -69.20940000
C      -46.11720000     -35.66180000     -68.16490000
H      -45.29700000     -34.00800000     -66.97740000
H      -48.32280000     -32.91660000     -69.76620000
H      -46.89620000     -36.97110000     -69.73720000
H      -45.46330000     -36.42000000     -67.68930000
C      -48.53340000     -35.29610000     -71.17180000
H      -48.82090000     -34.40480000     -71.75290000
H      -49.50430000     -35.81600000     -71.10550000
C      -46.99120000     -31.95210000     -67.73110000
H      -47.91560000     -31.84550000     -67.22580000
H      -46.23160000     -31.66850000     -67.01940000
S      -47.42560000     -36.29400000     -72.22700000
S      -46.99980000     -30.71500000     -69.05100000
C      -45.92830000     -35.30030000     -72.53010000
H      -45.50170000     -34.91010000     -71.64490000
H      -45.19940000     -35.98530000     -73.02760000
C      -45.33660000     -31.00250000     -69.68640000
H      -44.80880000     -31.45890000     -68.82770000
H      -44.89800000     -30.07630000     -70.00860000
C      -45.39490000     -31.96580000     -70.88480000
H      -45.94880000     -32.88610000     -70.66110000
H      -46.06400000     -31.52600000     -71.67470000
C      -46.08690000     -34.12190000     -73.45990000
H      -46.69000000     -33.39140000     -73.04830000
H      -46.56500000     -34.50390000     -74.41570000
C      -44.63950000     -33.65580000     -73.76410000
C      -43.95180000     -34.04210000     -74.85150000
C      -43.85330000     -32.79150000     -72.87660000
H      -44.34870000     -34.45520000     -75.77560000
C      -42.58620000     -32.65410000     -73.38160000
C      -44.06650000     -32.14420000     -71.58350000
C      -42.90950000     -31.44480000     -71.24190000
S      -42.32190000     -33.47150000     -74.91800000
S      -41.56880000     -31.62020000     -72.31420000
H      -42.77550000     -30.81460000     -70.39540000
