40
Properties=species:S:1:pos:R:3 #=T CELL(abcABC):=T 1.889726e+02=T 90.00000=T Traj:=T positionsangstrom=T Step:=T 0=T Bead:=T pbc="F F F"
C      -46.51980000     -34.59260000     -67.51330000
C      -47.13960000     -33.57110000     -68.27310000
C      -47.83930000     -33.94250000     -69.44650000
C      -47.70420000     -35.26350000     -69.95680000
C      -46.89680000     -36.17290000     -69.27960000
C      -46.35260000     -35.88530000     -68.00080000
H      -46.11240000     -34.31250000     -66.52660000
H      -48.25960000     -33.09930000     -70.02350000
H      -46.84410000     -37.18260000     -69.63560000
H      -45.74660000     -36.53040000     -67.41250000
C      -48.50280000     -35.65930000     -71.23900000
H      -49.02920000     -34.77290000     -71.62990000
H      -49.12600000     -36.55630000     -70.99220000
C      -47.26330000     -32.14120000     -67.70480000
H      -48.29570000     -32.02140000     -67.58490000
H      -46.82280000     -31.90750000     -66.69970000
S      -47.44850000     -36.34310000     -72.66000000
S      -46.95510000     -30.77310000     -68.90790000
C      -45.87630000     -35.39760000     -72.69330000
H      -45.36850000     -35.34110000     -71.69730000
H      -45.29200000     -35.96660000     -73.37830000
C      -45.27200000     -30.93190000     -69.58450000
H      -44.59920000     -31.25230000     -68.78070000
H      -45.04040000     -29.90770000     -69.89970000
C      -45.20410000     -31.93080000     -70.76330000
H      -45.46190000     -32.89550000     -70.35030000
H      -45.96070000     -31.61450000     -71.49330000
C      -45.98020000     -33.97420000     -73.22430000
H      -46.54890000     -33.26240000     -72.63660000
H      -46.58130000     -34.06220000     -74.09650000
C      -44.59160000     -33.48380000     -73.60910000
C      -43.99190000     -33.87470000     -74.79920000
C      -43.76050000     -32.66550000     -72.77640000
H      -44.51900000     -34.46440000     -75.53150000
C      -42.48070000     -32.46010000     -73.32420000
C      -43.92600000     -31.99580000     -71.47140000
C      -42.74980000     -31.28050000     -71.18360000
S      -42.38130000     -33.15170000     -74.92240000
S      -41.47570000     -31.47470000     -72.36560000
H      -42.61750000     -30.60480000     -70.32070000
