40
Properties=species:S:1:pos:R:3 #=T CELL(abcABC):=T 1.889726e+02=T 90.00000=T Traj:=T positionsangstrom=T Step:=T 0=T Bead:=T pbc="F F F"
C      -46.65840000     -34.74000000     -67.55980000
C      -47.24260000     -33.71240000     -68.39170000
C      -47.72010000     -34.06620000     -69.64080000
C      -47.67500000     -35.41170000     -70.06560000
C      -47.17810000     -36.41820000     -69.24370000
C      -46.58770000     -36.07580000     -68.01430000
H      -46.06500000     -34.37730000     -66.74860000
H      -48.23600000     -33.32670000     -70.29350000
H      -47.30080000     -37.48750000     -69.46500000
H      -46.39110000     -36.94850000     -67.33820000
C      -48.43130000     -35.62330000     -71.32410000
H      -48.87400000     -34.65410000     -71.65790000
H      -49.25500000     -36.34730000     -71.24130000
C      -47.41310000     -32.34250000     -67.67590000
H      -48.44890000     -32.14830000     -67.30420000
H      -46.62600000     -32.37150000     -66.95620000
S      -47.32910000     -36.31400000     -72.68040000
S      -47.05710000     -30.94370000     -68.80090000
C      -45.72980000     -35.38790000     -72.75660000
H      -45.40550000     -35.23860000     -71.72260000
H      -45.11710000     -36.09840000     -73.30460000
C      -45.34540000     -31.13400000     -69.48950000
H      -44.66920000     -31.39660000     -68.66910000
H      -45.02140000     -30.08750000     -69.67780000
C      -45.16910000     -32.08570000     -70.68660000
H      -45.17410000     -33.13820000     -70.27690000
H      -46.05080000     -32.12880000     -71.29360000
C      -45.84910000     -33.96700000     -73.48210000
H      -46.43520000     -33.28620000     -72.83570000
H      -46.35610000     -34.29040000     -74.36080000
C      -44.49810000     -33.35370000     -73.70930000
C      -43.81650000     -33.68000000     -74.84010000
C      -43.73960000     -32.51240000     -72.80260000
H      -44.19910000     -34.30980000     -75.62580000
C      -42.46430000     -32.19780000     -73.28790000
C      -43.94770000     -31.93820000     -71.47640000
C      -42.91530000     -31.15950000     -71.08780000
S      -42.18580000     -32.97350000     -74.86500000
S      -41.55930000     -31.20780000     -72.24580000
H      -42.78370000     -30.82830000     -70.06370000
