40
Properties=species:S:1:pos:R:3 #=T CELL(abcABC):=T 1.889726e+02=T 90.00000=T Traj:=T positionsangstrom=T Step:=T 0=T Bead:=T pbc="F F F"
C      -46.29480000     -34.44310000     -67.63290000
C      -47.07040000     -33.48340000     -68.25860000
C      -47.79410000     -33.83960000     -69.41740000
C      -47.86210000     -35.15870000     -69.87080000
C      -46.99610000     -36.04730000     -69.30790000
C      -46.22380000     -35.72460000     -68.16020000
H      -45.67530000     -34.27290000     -66.75940000
H      -48.49100000     -33.13780000     -69.73380000
H      -46.78050000     -37.03530000     -69.78930000
H      -45.60980000     -36.39110000     -67.55420000
C      -48.56120000     -35.48520000     -71.20020000
H      -48.91700000     -34.54450000     -71.67300000
H      -49.48520000     -36.01070000     -70.98290000
C      -47.14790000     -32.13840000     -67.69400000
H      -48.11500000     -32.13780000     -67.10710000
H      -46.25620000     -32.04240000     -67.05830000
S      -47.45700000     -36.38700000     -72.44090000
S      -47.01150000     -30.74360000     -68.86200000
C      -45.90340000     -35.32000000     -72.50280000
H      -45.85090000     -35.06550000     -71.40740000
H      -45.06280000     -35.98440000     -72.67680000
C      -45.36380000     -30.84810000     -69.68450000
H      -44.56330000     -31.00970000     -68.99110000
H      -45.15240000     -29.80730000     -70.03780000
C      -45.31120000     -31.89050000     -70.83080000
H      -45.60800000     -32.92320000     -70.45280000
H      -46.03420000     -31.66390000     -71.55830000
C      -45.99100000     -34.12430000     -73.37600000
H      -46.58240000     -33.43540000     -72.79460000
H      -46.52750000     -34.39850000     -74.38190000
C      -44.61290000     -33.47100000     -73.73540000
C      -43.99630000     -33.87460000     -74.89510000
C      -43.81670000     -32.65330000     -72.86310000
H      -44.38100000     -34.65890000     -75.47600000
C      -42.55830000     -32.44320000     -73.41180000
C      -44.00730000     -31.94250000     -71.56530000
C      -42.80330000     -31.40880000     -71.13330000
S      -42.29600000     -33.30450000     -74.97310000
S      -41.41320000     -31.66810000     -72.32010000
H      -42.63680000     -30.80850000     -70.21490000
