40
Properties=species:S:1:pos:R:3 #=T CELL(abcABC):=T 1.889726e+02=T 90.00000=T Traj:=T positionsangstrom=T Step:=T 0=T Bead:=T pbc="F F F"
C      -46.69460000     -34.75030000     -67.46650000
C      -47.31800000     -33.75300000     -68.30790000
C      -47.70560000     -34.03730000     -69.60700000
C      -47.52190000     -35.37700000     -70.14240000
C      -47.12850000     -36.38570000     -69.27580000
C      -46.55540000     -36.02710000     -68.00290000
H      -46.28200000     -34.56870000     -66.52000000
H      -48.20630000     -33.22620000     -70.22240000
H      -47.01300000     -37.43430000     -69.63740000
H      -46.15650000     -36.74170000     -67.38240000
C      -48.23770000     -35.60670000     -71.46550000
H      -48.61760000     -34.64050000     -71.89720000
H      -49.16360000     -36.28210000     -71.41130000
C      -47.58880000     -32.35350000     -67.66460000
H      -48.55870000     -32.28680000     -67.17350000
H      -46.74950000     -32.20960000     -66.98190000
S      -47.06260000     -36.54340000     -72.65570000
S      -47.28840000     -30.98960000     -68.89190000
C      -45.61110000     -35.39760000     -72.82910000
H      -45.30550000     -35.00610000     -71.86990000
H      -44.85130000     -36.10270000     -73.24600000
C      -45.59310000     -31.30950000     -69.41310000
H      -45.12160000     -31.91230000     -68.61640000
H      -45.10940000     -30.34980000     -69.46250000
C      -45.45850000     -31.89300000     -70.87380000
H      -45.91340000     -32.83720000     -70.98890000
H      -46.10380000     -31.28780000     -71.52330000
C      -45.76170000     -34.10870000     -73.71580000
H      -46.44460000     -33.40460000     -73.24800000
H      -46.03800000     -34.32740000     -74.71490000
C      -44.40770000     -33.43340000     -73.77200000
C      -43.51510000     -33.75360000     -74.76920000
C      -43.78080000     -32.59340000     -72.73720000
H      -43.73660000     -34.37330000     -75.59670000
C      -42.51550000     -32.16160000     -73.24560000
C      -44.11840000     -31.81000000     -71.51390000
C      -43.11370000     -31.00530000     -71.07290000
S      -41.93420000     -32.96180000     -74.67660000
S      -41.75590000     -30.99680000     -72.18130000
H      -42.99200000     -30.39010000     -70.22710000
