40
Properties=species:S:1:pos:R:3 #=T CELL(abcABC):=T 1.889726e+02=T 90.00000=T Traj:=T positionsangstrom=T Step:=T 0=T Bead:=T pbc="F F F"
C      -46.51450000     -34.63580000     -67.47790000
C      -47.04970000     -33.62270000     -68.33040000
C      -47.53440000     -34.02780000     -69.61460000
C      -47.62400000     -35.34590000     -70.03370000
C      -47.07380000     -36.35560000     -69.18650000
C      -46.55340000     -35.97660000     -67.99320000
H      -46.32460000     -34.40160000     -66.46090000
H      -48.02470000     -33.16340000     -70.21170000
H      -46.98370000     -37.35150000     -69.53950000
H      -46.03400000     -36.74520000     -67.42130000
C      -48.32450000     -35.72940000     -71.27830000
H      -48.98560000     -34.94490000     -71.49810000
H      -49.03270000     -36.58450000     -71.13650000
C      -47.30360000     -32.21030000     -67.77460000
H      -48.27990000     -31.99250000     -67.37180000
H      -46.66190000     -32.11090000     -66.84520000
S      -47.49520000     -36.36930000     -72.79880000
S      -47.03900000     -30.79490000     -68.96750000
C      -45.87300000     -35.41140000     -72.79310000
H      -45.46500000     -35.49200000     -71.79510000
H      -45.10360000     -35.89710000     -73.42920000
C      -45.18790000     -31.16080000     -69.36110000
H      -44.65950000     -31.60750000     -68.49610000
H      -44.72250000     -30.24420000     -69.57540000
C      -45.12320000     -32.06150000     -70.60680000
H      -45.32290000     -33.08430000     -70.31410000
H      -45.96340000     -31.77160000     -71.35450000
C      -46.01000000     -33.92310000     -73.33640000
H      -46.57310000     -33.26050000     -72.54620000
H      -46.64850000     -33.80830000     -74.24340000
C      -44.59280000     -33.34650000     -73.57650000
C      -43.92100000     -33.71730000     -74.73470000
C      -43.76470000     -32.54940000     -72.75680000
H      -44.30610000     -34.22700000     -75.61930000
C      -42.51450000     -32.25290000     -73.29510000
C      -43.89970000     -32.01330000     -71.45850000
C      -42.80610000     -31.23470000     -71.11580000
S      -42.32920000     -33.09280000     -74.82210000
S      -41.55630000     -31.30030000     -72.33360000
H      -42.60810000     -30.76720000     -70.14720000
