40
Properties=species:S:1:pos:R:3 #=T CELL(abcABC):=T 1.889726e+02=T 90.00000=T Traj:=T positionsangstrom=T Step:=T 0=T Bead:=T pbc="F F F"
C      -46.80310000     -34.42480000     -67.77330000
C      -47.63600000     -33.64820000     -68.57590000
C      -47.87640000     -34.30140000     -69.82220000
C      -47.32070000     -35.52450000     -70.19510000
C      -46.27430000     -36.08760000     -69.44120000
C      -46.00850000     -35.49750000     -68.19660000
H      -46.63640000     -34.13180000     -66.72300000
H      -48.53880000     -33.78440000     -70.42710000
H      -45.72870000     -36.96190000     -69.80570000
H      -45.23960000     -35.90450000     -67.45280000
C      -47.71620000     -36.03580000     -71.52900000
H      -48.25560000     -35.27960000     -72.19350000
H      -48.39380000     -36.88020000     -71.28000000
C      -48.32050000     -32.34970000     -68.32110000
H      -49.43140000     -32.46530000     -68.29700000
H      -48.08270000     -31.87120000     -67.34320000
S      -46.46150000     -36.78130000     -72.69190000
S      -48.19510000     -30.94270000     -69.73630000
C      -45.13320000     -35.47900000     -72.69620000
H      -44.91400000     -35.01750000     -71.68300000
H      -44.24870000     -36.02870000     -72.96070000
C      -46.39150000     -30.99080000     -70.15500000
H      -45.90470000     -31.47320000     -69.21460000
H      -46.15160000     -29.98430000     -70.15280000
C      -45.98720000     -31.81000000     -71.34760000
H      -46.16840000     -32.89810000     -71.11850000
H      -46.59520000     -31.56560000     -72.23090000
C      -45.27000000     -34.36460000     -73.72680000
H      -46.09750000     -33.75360000     -73.55120000
H      -45.26460000     -34.83960000     -74.72820000
C      -44.06930000     -33.46440000     -73.62590000
C      -42.96350000     -33.83160000     -74.32910000
C      -43.78130000     -32.53590000     -72.52400000
H      -43.04340000     -34.30740000     -75.32510000
C      -42.38320000     -32.19970000     -72.54650000
C      -44.48940000     -31.73670000     -71.57350000
C      -43.69380000     -30.82940000     -70.95710000
S      -41.54780000     -33.04990000     -73.84800000
S      -42.01960000     -30.96390000     -71.45480000
H      -43.90780000     -30.09290000     -70.27880000
