40
Properties=species:S:1:pos:R:3 #=T CELL(abcABC):=T 1.889726e+02=T 90.00000=T Traj:=T positionsangstrom=T Step:=T 0=T Bead:=T pbc="F F F"
C      -42.87600000     -31.93500000     -68.88490000
C      -44.06610000     -32.48610000     -68.39960000
C      -44.10900000     -33.96710000     -68.40670000
C      -43.11010000     -34.65850000     -69.03400000
C      -41.90430000     -34.07200000     -69.49690000
C      -41.80630000     -32.68980000     -69.45850000
H      -42.83320000     -30.89390000     -68.76160000
H      -44.93250000     -34.44480000     -67.98250000
H      -41.11420000     -34.59180000     -70.08720000
H      -40.89570000     -32.28780000     -69.88450000
C      -43.22380000     -36.18480000     -69.11050000
H      -44.09920000     -36.51590000     -68.54780000
H      -42.33130000     -36.68620000     -68.67060000
C      -45.10050000     -31.67620000     -67.63190000
H      -45.90700000     -32.36360000     -67.46960000
H      -44.67510000     -31.25670000     -66.75220000
S      -43.34100000     -36.83080000     -70.82580000
S      -45.80230000     -30.32880000     -68.69800000
C      -44.32830000     -35.62620000     -71.84860000
H      -43.73870000     -34.74810000     -71.96830000
H      -44.45230000     -36.07000000     -72.85750000
C      -46.60540000     -31.10140000     -70.13690000
H      -47.13280000     -30.35290000     -70.72540000
H      -47.34270000     -31.89530000     -69.89200000
C      -45.54800000     -31.73180000     -71.13260000
H      -44.76480000     -30.97460000     -71.39750000
H      -45.11980000     -32.56950000     -70.63390000
C      -45.77310000     -35.18160000     -71.35750000
H      -45.70020000     -34.51000000     -70.48870000
H      -46.31070000     -36.15900000     -71.05560000
C      -46.54110000     -34.67420000     -72.56450000
C      -47.14410000     -35.48330000     -73.49480000
C      -46.68530000     -33.29170000     -72.99690000
H      -47.35130000     -36.58260000     -73.38620000
C      -47.18860000     -33.19090000     -74.28940000
C      -46.26840000     -32.00890000     -72.43390000
C      -46.61810000     -31.04570000     -73.33130000
S      -47.70110000     -34.70670000     -74.91790000
S      -47.19480000     -31.54760000     -74.88350000
H      -46.43810000     -29.94390000     -73.13370000
