40
Properties=species:S:1:pos:R:3 #=T CELL(abcABC):=T 1.889726e+02=T 90.00000=T Traj:=T positionsangstrom=T Step:=T 0=T Bead:=T pbc="F F F"
C      -43.85270000     -31.61670000     -74.94120000
C      -44.44620000     -31.17910000     -73.73630000
C      -45.66890000     -31.74970000     -73.23250000
C      -46.21730000     -32.72560000     -74.04380000
C      -45.58950000     -33.20110000     -75.23280000
C      -44.39190000     -32.67580000     -75.70480000
H      -42.84310000     -31.26520000     -75.18810000
H      -46.09210000     -31.49620000     -72.30440000
H      -46.16390000     -33.95260000     -75.82260000
H      -44.05070000     -33.00250000     -76.71310000
C      -47.61270000     -33.27020000     -73.74540000
H      -48.28360000     -32.79180000     -74.43610000
H      -47.88950000     -33.08260000     -72.74820000
C      -43.65460000     -30.29660000     -72.81080000
H      -42.85120000     -29.85400000     -73.36070000
H      -44.21830000     -29.42230000     -72.46970000
S      -47.81380000     -35.15950000     -73.87060000
S      -42.74540000     -31.35780000     -71.49560000
C      -47.64660000     -35.46660000     -72.09490000
H      -48.17510000     -34.66140000     -71.52270000
H      -48.05030000     -36.45760000     -71.99630000
C      -42.85950000     -33.15490000     -71.97550000
H      -41.99920000     -33.46160000     -72.62370000
H      -43.69540000     -33.22510000     -72.71380000
C      -42.95420000     -34.18210000     -70.76650000
H      -43.23210000     -35.17380000     -71.05180000
H      -41.94150000     -34.42070000     -70.42030000
C      -46.22280000     -35.59290000     -71.47580000
H      -45.50360000     -34.89990000     -71.97000000
H      -45.78070000     -36.55800000     -71.57610000
C      -46.25910000     -35.06710000     -69.99420000
C      -47.36510000     -35.20060000     -69.16480000
C      -45.17240000     -34.35050000     -69.31920000
H      -48.23980000     -35.72510000     -69.46660000
C      -45.67540000     -33.87030000     -68.12660000
C      -43.84400000     -33.79170000     -69.57790000
C      -43.33700000     -33.01780000     -68.53820000
S      -47.26010000     -34.32280000     -67.70920000
S      -44.57150000     -32.82740000     -67.27990000
H      -42.42340000     -32.43080000     -68.72730000
