40
Properties=species:S:1:pos:R:3 #=T CELL(abcABC):=T 1.889726e+02=T 90.00000=T Traj:=T positionsangstrom=T Step:=T 0=T Bead:=T pbc="F F F"
C      -46.68910000     -34.11340000     -68.01330000
C      -47.73050000     -33.65500000     -68.82260000
C      -48.13120000     -34.50650000     -69.86330000
C      -47.33460000     -35.59350000     -70.22280000
C      -46.32670000     -36.05390000     -69.36390000
C      -46.05240000     -35.33250000     -68.26610000
H      -46.28560000     -33.49860000     -67.22880000
H      -48.87700000     -34.22110000     -70.63910000
H      -45.74220000     -36.96130000     -69.51320000
H      -45.22990000     -35.70150000     -67.57860000
C      -47.74030000     -36.22910000     -71.43160000
H      -48.15310000     -35.42520000     -72.08450000
H      -48.45070000     -37.06730000     -71.46530000
C      -48.40410000     -32.28950000     -68.59160000
H      -49.45800000     -32.42020000     -68.26260000
H      -47.85900000     -31.86920000     -67.75620000
S      -46.35520000     -37.04140000     -72.37230000
S      -48.30320000     -31.14860000     -70.06960000
C      -45.02540000     -35.75040000     -72.34360000
H      -44.80980000     -35.46060000     -71.32710000
H      -44.09730000     -36.36690000     -72.70330000
C      -46.46130000     -30.96520000     -70.32100000
H      -45.94170000     -30.89340000     -69.37700000
H      -46.43810000     -29.91370000     -70.77670000
C      -45.88020000     -32.08970000     -71.12010000
H      -45.96830000     -32.98890000     -70.54470000
H      -46.53490000     -32.37790000     -72.00610000
C      -45.09390000     -34.59530000     -73.36940000
H      -46.03890000     -33.94540000     -73.21890000
H      -45.27920000     -35.01740000     -74.32950000
C      -43.82330000     -33.74070000     -73.27380000
C      -42.73530000     -33.96060000     -74.11730000
C      -43.70780000     -32.50710000     -72.54730000
H      -42.61460000     -34.79600000     -74.71350000
C      -42.50230000     -31.81180000     -72.75360000
C      -44.49920000     -31.77360000     -71.52050000
C      -43.77940000     -30.72180000     -70.98580000
S      -41.44110000     -32.76860000     -73.81910000
S      -42.22110000     -30.51170000     -71.65310000
H      -44.13910000     -29.93750000     -70.28470000
