40
Properties=species:S:1:pos:R:3 #=T CELL(abcABC):=T 1.889726e+02=T 90.00000=T Traj:=T positionsangstrom=T Step:=T 0=T Bead:=T pbc="F F F"
C      -47.48170000     -33.92320000     -68.03850000
C      -48.11580000     -33.59940000     -69.22610000
C      -47.99150000     -34.49940000     -70.27130000
C      -47.24450000     -35.64480000     -70.19810000
C      -46.55750000     -35.95740000     -69.02610000
C      -46.72350000     -35.10830000     -67.96800000
H      -47.50990000     -33.27840000     -67.16330000
H      -48.50090000     -34.32330000     -71.21700000
H      -45.90080000     -36.82830000     -68.96250000
H      -46.19830000     -35.22750000     -66.97530000
C      -47.17440000     -36.44170000     -71.50060000
H      -47.56970000     -35.91640000     -72.39430000
H      -47.91190000     -37.26080000     -71.33790000
C      -48.84850000     -32.32830000     -69.29690000
H      -49.95430000     -32.39030000     -69.02360000
H      -48.42970000     -31.64340000     -68.62210000
S      -45.52910000     -37.19530000     -71.82250000
S      -48.89530000     -31.58300000     -71.01360000
C      -44.46600000     -35.74870000     -71.50790000
H      -44.93070000     -35.15350000     -70.72250000
H      -43.49060000     -36.06560000     -71.14640000
C      -47.12700000     -31.20700000     -71.31690000
H      -46.82010000     -30.62830000     -70.52960000
H      -47.19510000     -30.49110000     -72.13210000
C      -46.12620000     -32.28100000     -71.62790000
H      -46.11600000     -33.03710000     -70.88820000
H      -46.52630000     -32.81100000     -72.47200000
C      -44.26740000     -34.97070000     -72.83550000
H      -45.11940000     -34.43380000     -73.02380000
H      -43.91920000     -35.66250000     -73.66030000
C      -43.24080000     -33.86230000     -72.82440000
C      -41.93750000     -34.08070000     -73.08660000
C      -43.59180000     -32.51400000     -72.41890000
H      -41.47320000     -34.95780000     -73.30630000
C      -42.39170000     -31.68500000     -72.37240000
C      -44.77760000     -31.71970000     -71.91330000
C      -44.39390000     -30.40790000     -71.75030000
S      -40.97640000     -32.56640000     -72.91050000
S      -42.69590000     -29.98870000     -72.03850000
H      -45.03910000     -29.65200000     -71.33920000
