40
Properties=species:S:1:pos:R:3 #=T CELL(abcABC):=T 1.889726e+02=T 90.00000=T Traj:=T positionsangstrom=T Step:=T 0=T Bead:=T pbc="F F F"
C      -47.18870000     -33.98220000     -67.97290000
C      -47.96180000     -33.59800000     -69.10530000
C      -47.99300000     -34.47790000     -70.23700000
C      -47.25040000     -35.67480000     -70.33830000
C      -46.48470000     -35.96160000     -69.19850000
C      -46.44850000     -35.18820000     -68.06430000
H      -47.12770000     -33.31860000     -67.08000000
H      -48.53880000     -34.06550000     -71.03680000
H      -45.98520000     -36.93050000     -69.19320000
H      -45.96730000     -35.55910000     -67.19550000
C      -47.38720000     -36.55520000     -71.55880000
H      -47.74960000     -35.82270000     -72.29960000
H      -48.05120000     -37.43110000     -71.58780000
C      -48.70150000     -32.27990000     -69.04670000
H      -49.71080000     -32.55550000     -68.79410000
H      -48.23700000     -31.58350000     -68.27880000
S      -45.69380000     -37.38680000     -72.01020000
S      -48.80010000     -31.26070000     -70.64170000
C      -44.49380000     -35.99660000     -71.86720000
H      -44.52940000     -35.73780000     -70.78770000
H      -43.58920000     -36.53130000     -71.96170000
C      -46.98950000     -30.87080000     -70.93280000
H      -46.40800000     -30.68570000     -69.99350000
H      -47.02360000     -29.93850000     -71.39610000
C      -46.19760000     -31.92930000     -71.76790000
H      -46.29050000     -32.92970000     -71.23210000
H      -46.62510000     -31.97470000     -72.78200000
C      -44.70080000     -34.81060000     -72.79100000
H      -45.57860000     -34.27890000     -72.44410000
H      -44.92290000     -35.11090000     -73.77640000
C      -43.49970000     -33.86810000     -72.75980000
C      -42.25590000     -34.19980000     -73.03210000
C      -43.61000000     -32.43870000     -72.49600000
H      -41.83680000     -35.11560000     -73.27250000
C      -42.42930000     -31.72020000     -72.68450000
C      -44.69350000     -31.55960000     -71.96140000
C      -44.15140000     -30.33670000     -71.75140000
S      -41.14680000     -32.79960000     -73.02230000
S      -42.45350000     -30.10800000     -71.97960000
H      -44.74830000     -29.46260000     -71.37450000
