40
Properties=species:S:1:pos:R:3 #=T CELL(abcABC):=T 1.889726e+02=T 90.00000=T Traj:=T positionsangstrom=T Step:=T 0=T Bead:=T pbc="F F F"
C      -47.77330000     -33.89800000     -68.09910000
C      -48.21910000     -33.74730000     -69.43100000
C      -47.87810000     -34.71650000     -70.39300000
C      -47.24280000     -35.88040000     -70.05900000
C      -46.88290000     -36.06800000     -68.72420000
C      -47.13740000     -35.05180000     -67.76060000
H      -47.97690000     -33.09720000     -67.42440000
H      -48.19360000     -34.45610000     -71.40260000
H      -46.37920000     -36.93100000     -68.34520000
H      -46.70720000     -35.14210000     -66.79020000
C      -46.96190000     -36.97230000     -71.01470000
H      -47.48790000     -36.77070000     -72.00580000
H      -47.39280000     -37.90500000     -70.57220000
C      -49.19500000     -32.65560000     -69.79280000
H      -50.20730000     -32.92310000     -69.74420000
H      -49.23570000     -31.90510000     -68.95050000
S      -45.19160000     -37.19680000     -71.40960000
S      -48.81420000     -31.82830000     -71.45840000
C      -44.40800000     -35.51340000     -71.27720000
H      -45.02270000     -34.89250000     -70.63340000
H      -43.38840000     -35.69830000     -70.91090000
C      -47.07020000     -31.09370000     -71.19590000
H      -46.90450000     -30.90410000     -70.14690000
H      -46.99850000     -30.22170000     -71.78810000
C      -46.01780000     -32.09280000     -71.77350000
H      -45.95550000     -33.07050000     -71.30410000
H      -46.44970000     -32.25700000     -72.73400000
C      -44.29470000     -34.88370000     -72.70650000
H      -45.34150000     -34.63490000     -73.13150000
H      -43.99170000     -35.59020000     -73.48120000
C      -43.35860000     -33.71050000     -72.77990000
C      -42.04380000     -33.84560000     -73.21740000
C      -43.54820000     -32.32360000     -72.32390000
H      -41.76380000     -34.79990000     -73.68900000
C      -42.38330000     -31.58730000     -72.41140000
C      -44.65070000     -31.51670000     -71.90710000
C      -44.33530000     -30.17540000     -71.75300000
S      -41.03980000     -32.49000000     -73.08640000
S      -42.64230000     -29.88530000     -72.05310000
H      -44.96600000     -29.37550000     -71.44280000
