40
Properties=species:S:1:pos:R:3 #=T CELL(abcABC):=T 1.889726e+02=T 90.00000=T Traj:=T positionsangstrom=T Step:=T 0=T Bead:=T pbc="F F F"
C      -41.57150000     -31.57860000     -69.81690000
C      -42.74890000     -32.08250000     -69.19990000
C      -43.11230000     -33.44160000     -69.38490000
C      -42.28670000     -34.34320000     -70.10330000
C      -41.04580000     -33.81870000     -70.64290000
C      -40.79440000     -32.46390000     -70.52620000
H      -41.20190000     -30.49530000     -69.68410000
H      -44.04080000     -33.69230000     -68.91390000
H      -40.39890000     -34.44710000     -71.24980000
H      -39.93490000     -32.06420000     -71.04460000
C      -42.72730000     -35.79890000     -70.17780000
H      -43.61720000     -35.93660000     -69.60120000
H      -41.87280000     -36.51320000     -69.87470000
C      -43.46210000     -31.17960000     -68.21070000
H      -43.90120000     -31.75850000     -67.43750000
H      -42.81450000     -30.47370000     -67.73370000
S      -43.07940000     -36.47620000     -71.87410000
S      -44.79770000     -30.20370000     -69.10600000
C      -44.48930000     -35.53180000     -72.47400000
H      -44.18880000     -34.53700000     -72.86160000
H      -44.92160000     -36.10350000     -73.33990000
C      -45.85570000     -31.60020000     -69.90370000
H      -46.83070000     -31.27260000     -69.88980000
H      -45.84430000     -32.54390000     -69.27990000
C      -45.45370000     -31.85110000     -71.36240000
H      -44.94400000     -30.83500000     -71.71980000
H      -44.68240000     -32.67480000     -71.44930000
C      -45.62910000     -35.43350000     -71.39850000
H      -45.31000000     -34.73150000     -70.61630000
H      -45.68520000     -36.43760000     -70.89080000
C      -46.95050000     -34.97290000     -71.98250000
C      -47.94590000     -35.80370000     -72.39120000
C      -47.35710000     -33.53970000     -72.25890000
H      -47.76840000     -36.86950000     -72.31060000
C      -48.58780000     -33.53150000     -72.87290000
C      -46.71110000     -32.21550000     -72.15650000
C      -47.50740000     -31.25930000     -72.75470000
S      -49.29660000     -35.06560000     -73.14670000
S      -48.92010000     -31.91880000     -73.62740000
H      -47.34900000     -30.15590000     -72.77270000
