40
Properties=species:S:1:pos:R:3 #=T CELL(abcABC):=T 1.889726e+02=T 90.00000=T Traj:=T positionsangstrom=T Step:=T 0=T Bead:=T pbc="F F F"
C      -48.65400000     -33.46300000     -68.87850000
C      -48.63000000     -33.90530000     -70.20720000
C      -47.88080000     -35.07950000     -70.56650000
C      -46.99800000     -35.73200000     -69.63530000
C      -47.00880000     -35.22540000     -68.30540000
C      -47.83150000     -34.18840000     -67.96560000
H      -49.16090000     -32.54770000     -68.68020000
H      -47.89640000     -35.38180000     -71.63450000
H      -46.46960000     -35.79730000     -67.55550000
H      -47.79450000     -33.84290000     -66.97910000
C      -46.09820000     -36.86330000     -70.13480000
H      -46.28920000     -37.07380000     -71.15280000
H      -46.27780000     -37.79670000     -69.59040000
C      -49.51500000     -33.23900000     -71.24380000
H      -50.51760000     -33.61960000     -71.23130000
H      -49.62170000     -32.17530000     -71.01100000
S      -44.31750000     -36.57170000     -69.64810000
S      -48.79630000     -33.46350000     -72.98170000
C      -43.84780000     -34.91480000     -70.31320000
H      -44.74210000     -34.27370000     -70.20830000
H      -43.11780000     -34.52900000     -69.64730000
C      -47.31510000     -32.35230000     -72.89730000
H      -47.40670000     -31.67810000     -72.10460000
H      -47.28770000     -31.86090000     -73.85390000
C      -46.02960000     -33.12620000     -72.71170000
H      -45.90980000     -33.62760000     -71.75720000
H      -45.89730000     -33.83850000     -73.58880000
C      -43.30600000     -34.87870000     -71.79160000
H      -44.29370000     -35.00650000     -72.33700000
H      -42.58900000     -35.65110000     -72.01530000
C      -42.73260000     -33.51150000     -72.05200000
C      -41.44970000     -33.19490000     -71.70170000
C      -43.48910000     -32.33490000     -72.40230000
H      -40.69580000     -33.83190000     -71.45570000
C      -42.70680000     -31.17870000     -72.17730000
C      -44.84610000     -32.05910000     -72.72350000
C      -45.03980000     -30.70810000     -72.91600000
S      -41.07650000     -31.44920000     -71.77470000
S      -43.58450000     -29.76840000     -72.74260000
H      -45.89420000     -30.07890000     -73.19800000
