40
Properties=species:S:1:pos:R:3 #=T CELL(abcABC):=T 1.889726e+02=T 90.00000=T Traj:=T positionsangstrom=T Step:=T 0=T Bead:=T pbc="F F F"
C      -48.75180000     -33.89990000     -68.84860000
C      -48.64470000     -34.08550000     -70.26810000
C      -47.72230000     -35.05620000     -70.77390000
C      -46.79350000     -35.62920000     -69.92620000
C      -46.86800000     -35.28720000     -68.56520000
C      -47.80370000     -34.51760000     -67.96550000
H      -49.38660000     -33.17590000     -68.41860000
H      -47.70930000     -35.32840000     -71.78550000
H      -46.16030000     -35.74360000     -67.83650000
H      -47.57590000     -34.30310000     -66.87030000
C      -45.96720000     -36.82880000     -70.47850000
H      -46.04290000     -36.69100000     -71.57690000
H      -46.36930000     -37.83890000     -70.18680000
C      -49.51890000     -33.28990000     -71.21180000
H      -50.51050000     -33.82090000     -71.29870000
H      -49.78490000     -32.35070000     -70.75300000
S      -44.22770000     -36.89630000     -69.84200000
S      -48.89900000     -32.98260000     -72.97840000
C      -43.69160000     -35.10220000     -70.18170000
H      -44.48280000     -34.43020000     -69.72590000
H      -42.74410000     -35.02660000     -69.69840000
C      -47.30800000     -32.05740000     -72.84420000
H      -47.42290000     -30.96790000     -72.63240000
H      -46.78970000     -32.25380000     -73.84880000
C      -46.20680000     -32.51850000     -71.85300000
H      -46.59520000     -32.36540000     -70.87650000
H      -45.98270000     -33.58840000     -71.93980000
C      -43.56850000     -34.91410000     -71.71040000
H      -44.61370000     -34.99570000     -72.15030000
H      -43.05940000     -35.78200000     -72.05830000
C      -42.90760000     -33.57860000     -72.01470000
C      -41.54580000     -33.44820000     -72.19500000
C      -43.58900000     -32.28290000     -72.02240000
H      -40.95630000     -34.38890000     -72.29240000
C      -42.71610000     -31.19170000     -72.26310000
C      -44.98060000     -31.75870000     -72.04980000
C      -45.02280000     -30.40840000     -72.23030000
S      -41.06750000     -31.77240000     -72.46400000
S      -43.48590000     -29.63070000     -72.37840000
H      -45.97000000     -29.82680000     -72.19850000
