40
Properties=species:S:1:pos:R:3 #=T CELL(abcABC):=T 1.889726e+02=T 90.00000=T Traj:=T positionsangstrom=T Step:=T 0=T Bead:=T pbc="F F F"
C      -48.68940000     -33.77820000     -69.04130000
C      -48.71480000     -34.21690000     -70.35350000
C      -48.00330000     -35.36400000     -70.73290000
C      -47.15110000     -35.93810000     -69.79850000
C      -47.19920000     -35.52970000     -68.47410000
C      -47.86570000     -34.35590000     -68.05180000
H      -49.16150000     -32.76240000     -68.89420000
H      -47.94290000     -35.56040000     -71.85170000
H      -46.53220000     -35.94420000     -67.75050000
H      -47.95180000     -33.92890000     -67.05390000
C      -46.22200000     -36.97410000     -70.27930000
H      -46.13230000     -37.14310000     -71.36130000
H      -46.58490000     -37.94140000     -69.86070000
C      -49.57530000     -33.49240000     -71.36920000
H      -50.25700000     -34.26450000     -71.71810000
H      -50.16510000     -32.63260000     -71.01660000
S      -44.43350000     -36.72740000     -69.68140000
S      -48.73220000     -32.95180000     -72.86260000
C      -43.92330000     -34.92420000     -70.08860000
H      -44.76920000     -34.20780000     -69.90550000
H      -43.10430000     -34.64040000     -69.35730000
C      -47.37230000     -31.88740000     -72.32350000
H      -47.72260000     -31.21480000     -71.49200000
H      -47.29010000     -31.22790000     -73.16540000
C      -46.03680000     -32.64670000     -72.20990000
H      -46.01070000     -33.09850000     -71.14930000
H      -46.11360000     -33.45880000     -72.94530000
C      -43.55720000     -34.83490000     -71.56680000
H      -44.41270000     -34.73840000     -72.16620000
H      -43.03570000     -35.76780000     -71.76460000
C      -42.82680000     -33.53670000     -71.89220000
C      -41.46710000     -33.40900000     -72.05980000
C      -43.47220000     -32.25210000     -72.15090000
H      -40.70820000     -34.15940000     -71.95350000
C      -42.57530000     -31.20980000     -72.28450000
C      -44.84560000     -31.78120000     -72.29360000
C      -44.84460000     -30.43780000     -72.62080000
S      -40.91120000     -31.73550000     -72.44530000
S      -43.28260000     -29.61000000     -72.60000000
H      -45.70750000     -29.86960000     -72.83320000
