40
Properties=species:S:1:pos:R:3 #=T CELL(abcABC):=T 1.889726e+02=T 90.00000=T Traj:=T positionsangstrom=T Step:=T 0=T Bead:=T pbc="F F F"
C      -43.11110000     -31.67550000     -73.55580000
C      -43.33870000     -32.55390000     -72.48450000
C      -44.10850000     -32.01760000     -71.38490000
C      -44.69920000     -30.73460000     -71.42450000
C      -44.47820000     -29.96320000     -72.56060000
C      -43.63680000     -30.38350000     -73.58030000
H      -42.47890000     -32.12040000     -74.33320000
H      -44.43140000     -32.59060000     -70.55430000
H      -44.85050000     -28.96430000     -72.61170000
H      -43.49450000     -29.76980000     -74.53560000
C      -45.71610000     -30.26290000     -70.45800000
H      -45.53990000     -29.25400000     -70.21050000
H      -45.76980000     -30.86090000     -69.57310000
C      -42.70350000     -33.94840000     -72.44160000
H      -41.64380000     -33.97290000     -72.48470000
H      -42.91900000     -34.34390000     -71.40520000
S      -47.43180000     -30.16370000     -71.27560000
S      -43.25970000     -35.13750000     -73.68540000
C      -47.53630000     -31.77840000     -72.24940000
H      -48.11470000     -31.60310000     -73.24690000
H      -46.57330000     -31.97950000     -72.69870000
C      -45.08570000     -34.77310000     -73.77690000
H      -45.33350000     -34.74920000     -74.88050000
H      -45.19720000     -33.75200000     -73.57200000
C      -46.03340000     -35.75340000     -73.03440000
H      -47.11550000     -35.37800000     -73.00180000
H      -46.04390000     -36.75070000     -73.40950000
C      -48.08100000     -33.04520000     -71.44910000
H      -48.25500000     -33.86370000     -72.15180000
H      -48.99590000     -32.74170000     -70.95440000
C      -47.11050000     -33.57430000     -70.37980000
C      -47.21250000     -33.18460000     -69.04680000
C      -46.02320000     -34.67440000     -70.48680000
H      -47.88120000     -32.50040000     -68.62190000
C      -45.51330000     -35.01020000     -69.23180000
C      -45.67100000     -35.66190000     -71.52940000
C      -44.81390000     -36.63010000     -70.97450000
S      -46.09580000     -34.03340000     -67.94480000
S      -44.57520000     -36.41510000     -69.27700000
H      -44.44350000     -37.44730000     -71.54050000
