40
Properties=species:S:1:pos:R:3 #=T CELL(abcABC):=T 1.889726e+02=T 90.00000=T Traj:=T positionsangstrom=T Step:=T 0=T Bead:=T pbc="F F F"
C      -48.45030000     -33.06160000     -69.28220000
C      -48.41680000     -34.15090000     -70.15610000
C      -47.44440000     -35.24750000     -69.95610000
C      -46.68710000     -35.24990000     -68.83380000
C      -46.70660000     -34.14310000     -67.90110000
C      -47.52220000     -33.09880000     -68.19820000
H      -49.13690000     -32.25670000     -69.42290000
H      -47.38510000     -36.07380000     -70.69590000
H      -46.21850000     -34.11400000     -66.99720000
H      -47.65620000     -32.30470000     -67.52900000
C      -45.72110000     -36.28590000     -68.39290000
H      -46.08420000     -37.31120000     -68.62810000
H      -45.85570000     -36.31280000     -67.28380000
C      -49.50130000     -34.20060000     -71.22910000
H      -50.18150000     -35.00080000     -70.95850000
H      -50.03390000     -33.22060000     -71.24700000
S      -43.95420000     -36.21420000     -69.08580000
S      -48.72020000     -34.45330000     -72.87820000
C      -43.83110000     -34.48930000     -69.85240000
H      -44.87380000     -34.18950000     -70.06700000
H      -43.31020000     -33.78300000     -69.17890000
C      -47.62740000     -32.97850000     -73.04690000
H      -48.22510000     -32.10150000     -72.70130000
H      -47.43130000     -32.90250000     -74.14900000
C      -46.25740000     -33.20830000     -72.27830000
H      -46.43630000     -33.21880000     -71.14110000
H      -45.90780000     -34.20090000     -72.64470000
C      -43.11250000     -34.60050000     -71.20530000
H      -43.61930000     -35.33770000     -71.89330000
H      -42.10120000     -35.04110000     -71.03300000
C      -42.80600000     -33.23540000     -71.81100000
C      -41.50070000     -32.82880000     -71.83140000
C      -43.69700000     -32.28640000     -72.41090000
H      -40.66530000     -33.33280000     -71.40500000
C      -42.98960000     -31.27010000     -72.99440000
C      -45.13700000     -32.20150000     -72.66580000
C      -45.50110000     -31.00640000     -73.28220000
S      -41.25920000     -31.39840000     -72.82370000
S      -44.02540000     -30.12690000     -73.82950000
H      -46.47150000     -30.74400000     -73.52980000
