40
Properties=species:S:1:pos:R:3 #=T CELL(abcABC):=T 1.889726e+02=T 90.00000=T Traj:=T positionsangstrom=T Step:=T 0=T Bead:=T pbc="F F F"
C      -48.45340000     -33.04330000     -69.19210000
C      -48.45530000     -34.03300000     -70.15190000
C      -47.60870000     -35.14540000     -69.98200000
C      -46.68340000     -35.22510000     -68.91280000
C      -46.65860000     -34.18400000     -67.99980000
C      -47.50700000     -33.07490000     -68.11500000
H      -49.17100000     -32.19580000     -69.14280000
H      -47.67090000     -35.85220000     -70.74800000
H      -45.98520000     -34.32360000     -67.19060000
H      -47.66470000     -32.37910000     -67.24820000
C      -45.93400000     -36.49550000     -68.87090000
H      -46.31060000     -37.21740000     -69.58820000
H      -45.97270000     -37.12680000     -68.00470000
C      -49.44670000     -34.08000000     -71.27400000
H      -50.05290000     -35.04390000     -71.21320000
H      -50.06670000     -33.24960000     -71.12360000
S      -44.14550000     -36.26340000     -69.21060000
S      -48.72190000     -34.26310000     -72.93400000
C      -43.84010000     -34.61940000     -70.02280000
H      -44.78660000     -34.00150000     -70.01830000
H      -43.12350000     -34.11110000     -69.46660000
C      -47.54060000     -32.80250000     -73.09980000
H      -47.89060000     -31.92630000     -72.63050000
H      -47.53350000     -32.56140000     -74.13390000
C      -46.18020000     -33.13990000     -72.50270000
H      -46.42470000     -33.20340000     -71.42580000
H      -45.81550000     -34.09730000     -72.93510000
C      -43.39830000     -34.85280000     -71.41870000
H      -44.33480000     -35.17690000     -71.96640000
H      -42.60050000     -35.60060000     -71.41460000
C      -42.93670000     -33.53980000     -72.09840000
C      -41.58550000     -33.28750000     -72.09280000
C      -43.67880000     -32.38360000     -72.51420000
H      -40.86090000     -33.96740000     -71.62340000
C      -42.88020000     -31.26550000     -72.79700000
C      -45.08650000     -32.05300000     -72.70800000
C      -45.34440000     -30.73850000     -73.04870000
S      -41.10580000     -31.65440000     -72.62090000
S      -43.84000000     -29.83230000     -73.21930000
H      -46.28990000     -30.12230000     -73.18860000
