40
Properties=species:S:1:pos:R:3 #=T CELL(abcABC):=T 1.889726e+02=T 90.00000=T Traj:=T positionsangstrom=T Step:=T 0=T Bead:=T pbc="F F F"
C      -48.51780000     -33.04440000     -69.27820000
C      -48.57430000     -34.12320000     -70.13770000
C      -47.73720000     -35.21950000     -69.98670000
C      -46.80130000     -35.18530000     -68.90040000
C      -46.71640000     -34.04630000     -68.05670000
C      -47.61580000     -33.04930000     -68.22450000
H      -49.20980000     -32.20430000     -69.48330000
H      -47.81630000     -36.07210000     -70.67160000
H      -45.92250000     -34.04610000     -67.34430000
H      -47.58520000     -32.05110000     -67.74460000
C      -45.80890000     -36.31260000     -68.65580000
H      -46.31380000     -37.22080000     -69.08240000
H      -45.70680000     -36.46400000     -67.55130000
C      -49.52590000     -33.98700000     -71.30910000
H      -50.42840000     -34.68040000     -71.28500000
H      -49.96270000     -32.99280000     -71.24040000
S      -43.94710000     -36.24890000     -69.14950000
S      -48.60220000     -34.37060000     -72.83880000
C      -43.76330000     -34.66940000     -70.05150000
H      -44.69960000     -34.10210000     -69.83060000
H      -42.92590000     -34.16970000     -69.55670000
C      -47.55370000     -32.88700000     -72.98330000
H      -48.03950000     -31.97810000     -72.55320000
H      -47.40540000     -32.79760000     -74.09470000
C      -46.17260000     -33.14190000     -72.36100000
H      -46.17170000     -33.37350000     -71.24400000
H      -45.65790000     -34.01920000     -72.82910000
C      -43.45530000     -34.83830000     -71.52820000
H      -44.31630000     -35.12840000     -72.16510000
H      -42.67130000     -35.57950000     -71.59100000
C      -42.92890000     -33.50100000     -72.04680000
C      -41.58520000     -33.18240000     -72.01890000
C      -43.70920000     -32.43170000     -72.55220000
H      -40.71920000     -33.86690000     -71.89310000
C      -42.89680000     -31.30690000     -72.85560000
C      -45.14360000     -32.06250000     -72.58980000
C      -45.38950000     -30.78410000     -73.01870000
S      -41.18570000     -31.56990000     -72.68900000
S      -43.84360000     -29.92820000     -73.39130000
H      -46.39760000     -30.35770000     -73.17050000
