40
Properties=species:S:1:pos:R:3 #=T CELL(abcABC):=T 1.889726e+02=T 90.00000=T Traj:=T positionsangstrom=T Step:=T 0=T Bead:=T pbc="F F F"
C      -47.56600000     -32.99400000     -69.70180000
C      -47.56530000     -34.40740000     -69.64740000
C      -46.35160000     -34.98560000     -69.19090000
C      -45.16530000     -34.33250000     -68.87090000
C      -45.16490000     -32.92930000     -69.06240000
C      -46.35120000     -32.33550000     -69.41850000
H      -48.38420000     -32.27370000     -69.88340000
H      -46.33170000     -36.01100000     -68.94930000
H      -44.28180000     -32.44070000     -68.72490000
H      -46.26930000     -31.22050000     -69.42840000
C      -44.02760000     -35.06040000     -68.29210000
H      -44.36710000     -35.72250000     -67.51250000
H      -43.34650000     -34.29990000     -67.77900000
C      -48.75540000     -35.22880000     -70.21410000
H      -48.95250000     -36.12530000     -69.61180000
H      -49.56760000     -34.49570000     -70.22230000
S      -42.91660000     -36.12650000     -69.40500000
S      -48.50300000     -35.72040000     -71.95860000
C      -42.39450000     -34.77990000     -70.52840000
H      -42.30640000     -33.76350000     -70.04110000
H      -41.50370000     -35.16350000     -70.89470000
C      -47.94470000     -34.09730000     -72.82000000
H      -48.14240000     -33.27520000     -72.11080000
H      -48.56650000     -33.96500000     -73.69530000
C      -46.47880000     -34.12700000     -73.13300000
H      -45.89160000     -34.57020000     -72.40900000
H      -46.36440000     -34.62240000     -74.11330000
C      -43.48630000     -34.54730000     -71.56970000
H      -44.46170000     -34.80560000     -71.20330000
H      -43.29510000     -35.22780000     -72.41030000
C      -43.48360000     -33.08580000     -72.04140000
C      -42.50350000     -32.12770000     -71.79310000
C      -44.63790000     -32.37600000     -72.65500000
H      -41.54920000     -32.46950000     -71.36600000
C      -44.39850000     -30.99300000     -72.83170000
C      -45.95060000     -32.69480000     -73.22800000
C      -46.59710000     -31.60450000     -73.74610000
S      -42.72190000     -30.50060000     -72.32650000
S      -45.67490000     -30.14590000     -73.52750000
H      -47.62350000     -31.40510000     -73.96500000
