40
Properties=species:S:1:pos:R:3 #=T CELL(abcABC):=T 1.889726e+02=T 90.00000=T Traj:=T positionsangstrom=T Step:=T 0=T Bead:=T pbc="F F F"
C      -44.81480000     -31.72890000     -75.14620000
C      -44.61450000     -30.94450000     -73.93920000
C      -45.72520000     -30.72710000     -73.12690000
C      -46.97770000     -31.31630000     -73.35940000
C      -47.09490000     -32.13250000     -74.44880000
C      -46.07600000     -32.35380000     -75.31540000
H      -44.04790000     -32.05850000     -75.74860000
H      -45.66880000     -30.25980000     -72.19700000
H      -48.06310000     -32.58780000     -74.60700000
H      -46.40040000     -32.97610000     -76.13480000
C      -48.17840000     -31.19820000     -72.42460000
H      -48.92540000     -31.91760000     -72.73760000
H      -48.69230000     -30.20370000     -72.55510000
C      -43.26550000     -30.46290000     -73.50260000
H      -42.56170000     -30.80860000     -74.22650000
H      -43.22480000     -29.39720000     -73.49260000
S      -47.70770000     -31.09500000     -70.61470000
S      -42.62270000     -30.90860000     -71.82160000
C      -47.65140000     -32.84890000     -69.94050000
H      -46.83270000     -32.82270000     -69.22070000
H      -48.57930000     -33.25220000     -69.53640000
C      -42.61380000     -32.75470000     -71.66040000
H      -42.03480000     -32.97030000     -70.78160000
H      -42.07300000     -33.29830000     -72.44950000
C      -43.96790000     -33.36000000     -71.38980000
H      -44.72580000     -32.59410000     -71.13710000
H      -44.44840000     -33.63890000     -72.41940000
C      -47.19240000     -33.88220000     -71.04240000
H      -46.38300000     -33.52810000     -71.72110000
H      -47.99570000     -34.33870000     -71.61570000
C      -46.57330000     -35.00730000     -70.26780000
C      -47.29310000     -36.02970000     -69.69050000
C      -45.18790000     -35.21890000     -70.00540000
H      -48.41280000     -36.13500000     -69.76510000
C      -44.85780000     -36.32400000     -69.22170000
C      -44.02260000     -34.56990000     -70.50490000
C      -42.85560000     -35.17330000     -70.13140000
S      -46.30460000     -37.16700000     -68.76240000
S      -43.13640000     -36.58540000     -69.05730000
H      -41.89570000     -34.79760000     -70.34090000
