40
Properties=species:S:1:pos:R:3 #=T CELL(abcABC):=T 1.889726e+02=T 90.00000=T Traj:=T positionsangstrom=T Step:=T 0=T Bead:=T pbc="F F F"
C      -47.74950000     -36.27960000     -70.09040000
C      -47.22870000     -34.96710000     -69.94370000
C      -45.85450000     -34.79620000     -70.15420000
C      -45.11660000     -35.88890000     -70.65070000
C      -45.71750000     -37.17810000     -70.93970000
C      -47.01650000     -37.35210000     -70.51560000
H      -48.83070000     -36.38590000     -69.89210000
H      -45.32550000     -33.83940000     -69.93990000
H      -45.08340000     -37.95880000     -71.29520000
H      -47.51950000     -38.30880000     -70.64540000
C      -43.57730000     -35.85170000     -70.68610000
H      -43.22480000     -36.67970000     -70.01700000
H      -43.10140000     -34.89230000     -70.47750000
C      -48.03990000     -33.75370000     -69.51140000
H      -49.02880000     -34.05140000     -69.07970000
H      -47.57470000     -33.07420000     -68.82490000
S      -42.97300000     -36.29840000     -72.39750000
S      -48.67430000     -32.79190000     -70.99930000
C      -42.60100000     -34.70680000     -73.19930000
H      -41.69110000     -34.32240000     -72.74980000
H      -42.30020000     -34.95380000     -74.23180000
C      -47.70620000     -33.49790000     -72.46970000
H      -48.42960000     -33.93170000     -73.18820000
H      -47.07110000     -34.30840000     -71.96900000
C      -46.90170000     -32.44150000     -73.16850000
H      -46.35440000     -32.92150000     -73.97400000
H      -47.61500000     -31.74670000     -73.72680000
C      -43.83440000     -33.82320000     -73.12240000
H      -44.77010000     -34.35220000     -72.82170000
H      -44.02540000     -33.45340000     -74.16580000
C      -43.56630000     -32.63620000     -72.14550000
C      -42.34360000     -32.23130000     -71.66920000
C      -44.66100000     -31.65800000     -71.85160000
H      -41.37070000     -32.73310000     -71.78190000
C      -44.26600000     -30.68800000     -70.98560000
C      -46.09980000     -31.62560000     -72.17360000
C      -46.67040000     -30.58210000     -71.50250000
S      -42.53790000     -30.76620000     -70.63070000
S      -45.58960000     -29.72600000     -70.42330000
H      -47.68260000     -30.14190000     -71.64370000
