40
Properties=species:S:1:pos:R:3 #=T CELL(abcABC):=T 1.889726e+02=T 90.00000=T Traj:=T positionsangstrom=T Step:=T 0=T Bead:=T pbc="F F F"
C      -45.29450000     -32.09770000     -74.88350000
C      -44.62400000     -31.18120000     -74.01770000
C      -45.34590000     -30.56020000     -72.99290000
C      -46.70420000     -30.87290000     -72.84720000
C      -47.39340000     -31.76510000     -73.74880000
C      -46.67830000     -32.33210000     -74.79080000
H      -44.71480000     -32.73650000     -75.55510000
H      -44.78260000     -29.95530000     -72.33910000
H      -48.53750000     -31.80610000     -73.73300000
H      -47.10360000     -32.92340000     -75.58810000
C      -47.57090000     -30.12640000     -71.79620000
H      -48.55260000     -29.82020000     -72.15900000
H      -47.12060000     -29.16930000     -71.53980000
C      -43.01970000     -31.00000000     -74.19110000
H      -42.67830000     -31.37640000     -75.16670000
H      -42.74550000     -29.96070000     -74.24110000
S      -48.14000000     -30.92130000     -70.19530000
S      -42.08930000     -31.61490000     -72.74180000
C      -46.89520000     -32.13980000     -69.69230000
H      -45.95530000     -31.68350000     -69.92510000
H      -47.04010000     -32.30160000     -68.66320000
C      -42.66270000     -33.38100000     -72.41390000
H      -41.77020000     -33.78110000     -71.99030000
H      -42.84300000     -33.98050000     -73.36340000
C      -43.89370000     -33.44080000     -71.57570000
H      -43.89870000     -32.67670000     -70.74670000
H      -44.73150000     -33.38590000     -72.14200000
C      -47.12100000     -33.40200000     -70.48980000
H      -46.83400000     -33.30660000     -71.55040000
H      -48.18910000     -33.51110000     -70.45590000
C      -46.56310000     -34.69540000     -69.89490000
C      -47.39020000     -35.55500000     -69.25510000
C      -45.20040000     -35.16290000     -69.97360000
H      -48.42710000     -35.33190000     -69.08080000
C      -45.04010000     -36.36650000     -69.31770000
C      -43.99620000     -34.76290000     -70.74320000
C      -42.95440000     -35.65820000     -70.62900000
S      -46.51060000     -36.93900000     -68.59700000
S      -43.36000000     -36.99050000     -69.46910000
H      -41.91860000     -35.56780000     -70.89420000
