40
Properties=species:S:1:pos:R:3 #=T CELL(abcABC):=T 1.889726e+02=T 90.00000=T Traj:=T positionsangstrom=T Step:=T 0=T Bead:=T pbc="F F F"
C      -42.93610000     -31.19030000     -73.77450000
C      -43.38360000     -32.13890000     -72.84510000
C      -44.43730000     -31.87120000     -71.97130000
C      -45.06470000     -30.66620000     -72.06370000
C      -44.66640000     -29.69940000     -73.00410000
C      -43.62970000     -29.95050000     -73.83190000
H      -42.21070000     -31.47080000     -74.50430000
H      -44.58120000     -32.60690000     -71.21220000
H      -45.16050000     -28.79180000     -73.04210000
H      -43.24480000     -29.17430000     -74.50770000
C      -46.15890000     -30.29310000     -71.12460000
H      -46.29140000     -29.25020000     -71.13790000
H      -45.81230000     -30.58940000     -70.13440000
C      -42.74820000     -33.48660000     -72.66940000
H      -41.76080000     -33.22960000     -72.72010000
H      -43.01010000     -33.89820000     -71.70080000
S      -47.94560000     -30.92540000     -71.34700000
S      -43.38170000     -34.85200000     -73.92540000
C      -47.84530000     -32.51270000     -72.40940000
H      -48.60710000     -32.38310000     -73.12180000
H      -46.90350000     -32.43220000     -72.90610000
C      -45.07620000     -35.07500000     -73.42180000
H      -45.62200000     -35.24700000     -74.43550000
H      -45.42500000     -34.22910000     -72.82900000
C      -45.45180000     -36.26970000     -72.45300000
H      -46.49610000     -36.40490000     -72.52010000
H      -44.91690000     -37.14430000     -72.65450000
C      -47.92510000     -33.83750000     -71.62570000
H      -47.87620000     -34.60230000     -72.38710000
H      -48.94460000     -33.93280000     -71.27580000
C      -47.03970000     -34.01270000     -70.35310000
C      -47.20480000     -33.17830000     -69.28820000
C      -45.93470000     -35.00510000     -70.15100000
H      -47.94450000     -32.40360000     -69.29330000
C      -45.48530000     -34.89360000     -68.82870000
C      -45.15730000     -35.94880000     -70.95420000
C      -44.02570000     -36.39210000     -70.38780000
S      -46.27620000     -33.71680000     -67.82120000
S      -44.05070000     -35.88470000     -68.63360000
H      -43.36400000     -37.16150000     -70.68620000
