40
Properties=species:S:1:pos:R:3 #=T CELL(abcABC):=T 1.889726e+02=T 90.00000=T Traj:=T positionsangstrom=T Step:=T 0=T Bead:=T pbc="F F F"
C      -45.17210000     -32.17790000     -74.93770000
C      -44.57570000     -31.38540000     -73.91300000
C      -45.42000000     -30.91560000     -72.87680000
C      -46.79150000     -31.07310000     -72.87260000
C      -47.42000000     -31.83520000     -73.90840000
C      -46.57250000     -32.42570000     -74.83120000
H      -44.67540000     -32.50980000     -75.82120000
H      -44.95870000     -30.19730000     -72.14040000
H      -48.49120000     -32.10740000     -73.99200000
H      -47.07390000     -33.11150000     -75.48410000
C      -47.65560000     -30.17950000     -72.05980000
H      -48.66490000     -30.10230000     -72.51630000
H      -47.18290000     -29.18950000     -72.21470000
C      -43.18030000     -30.96860000     -74.07550000
H      -42.71200000     -31.45430000     -74.95630000
H      -43.01980000     -29.90160000     -74.05050000
S      -47.89390000     -30.62320000     -70.28300000
S      -42.13900000     -31.49020000     -72.54390000
C      -47.08100000     -32.21570000     -69.79170000
H      -46.02040000     -31.95520000     -69.83350000
H      -47.31210000     -32.40480000     -68.65950000
C      -42.59490000     -33.22710000     -72.28490000
H      -41.92960000     -33.69800000     -71.57780000
H      -42.42270000     -33.78570000     -73.24720000
C      -43.92540000     -33.48230000     -71.55370000
H      -44.21380000     -32.58640000     -71.04080000
H      -44.72240000     -33.59610000     -72.36010000
C      -47.22100000     -33.48380000     -70.64680000
H      -46.71440000     -33.27360000     -71.57160000
H      -48.28740000     -33.76480000     -70.82480000
C      -46.61780000     -34.65120000     -69.89860000
C      -47.33700000     -35.50510000     -69.09940000
C      -45.25200000     -35.12630000     -70.04930000
H      -48.44300000     -35.37970000     -68.90480000
C      -45.06230000     -36.33610000     -69.40260000
C      -43.98820000     -34.70310000     -70.70250000
C      -42.98220000     -35.65390000     -70.51900000
S      -46.43720000     -36.95560000     -68.49470000
S      -43.41190000     -37.04030000     -69.59220000
H      -41.95620000     -35.51690000     -70.75210000
