40
Properties=species:S:1:pos:R:3 #=T CELL(abcABC):=T 1.889726e+02=T 90.00000=T Traj:=T positionsangstrom=T Step:=T 0=T Bead:=T pbc="F F F"
C      -46.11360000     -31.25540000     -74.85730000
C      -44.97290000     -31.07940000     -74.07150000
C      -45.24730000     -30.59340000     -72.79750000
C      -46.55370000     -30.50720000     -72.28610000
C      -47.70440000     -30.68050000     -73.12600000
C      -47.43980000     -31.09580000     -74.45170000
H      -46.01770000     -31.63700000     -75.80000000
H      -44.41340000     -30.55390000     -72.08840000
H      -48.64610000     -30.56500000     -72.76490000
H      -48.23770000     -31.27830000     -75.15150000
C      -46.67870000     -30.05850000     -70.89120000
H      -46.90230000     -29.01970000     -70.80990000
H      -45.85970000     -30.40380000     -70.24670000
C      -43.56260000     -31.22380000     -74.56600000
H      -43.48040000     -31.59060000     -75.54540000
H      -42.98340000     -30.27120000     -74.57060000
S      -47.96460000     -31.01830000     -69.99330000
S      -42.46840000     -32.24510000     -73.51830000
C      -46.87370000     -32.45530000     -69.57220000
H      -45.81760000     -32.19170000     -69.35740000
H      -47.30150000     -32.90710000     -68.64220000
C      -43.52230000     -33.47300000     -72.63920000
H      -43.28340000     -34.48490000     -72.93200000
H      -44.60370000     -33.17650000     -72.88310000
C      -43.26730000     -33.34550000     -71.12710000
H      -42.25120000     -33.15720000     -70.90530000
H      -43.73840000     -32.42050000     -70.72480000
C      -46.83550000     -33.50090000     -70.72830000
H      -46.17170000     -33.20970000     -71.52960000
H      -47.76950000     -33.61590000     -71.22460000
C      -46.33540000     -34.82910000     -70.17630000
C      -47.22940000     -35.80870000     -69.71950000
C      -44.99070000     -35.25180000     -70.09030000
H      -48.24670000     -35.92160000     -69.53730000
C      -44.84700000     -36.47720000     -69.52730000
C      -43.64700000     -34.62540000     -70.34460000
C      -42.65610000     -35.56030000     -69.97680000
S      -46.41620000     -37.14440000     -69.01600000
S      -43.21710000     -37.10840000     -69.47410000
H      -41.64770000     -35.37450000     -70.11010000
