40
Properties=species:S:1:pos:R:3 #=T CELL(abcABC):=T 1.889726e+02=T 90.00000=T Traj:=T positionsangstrom=T Step:=T 0=T Bead:=T pbc="F F F"
C      -47.13760000     -34.97250000     -67.76900000
C      -47.67850000     -34.35820000     -68.89710000
C      -47.37500000     -33.05070000     -69.17890000
C      -46.47150000     -32.36730000     -68.28440000
C      -45.92420000     -32.99550000     -67.16630000
C      -46.35870000     -34.35850000     -66.81860000
H      -47.52890000     -35.92240000     -67.60850000
H      -47.91290000     -32.49270000     -69.96890000
H      -45.31450000     -32.45040000     -66.33910000
H      -45.86890000     -34.87860000     -66.00110000
C      -46.19850000     -30.89120000     -68.45870000
H      -46.23870000     -30.26220000     -67.55800000
H      -46.79650000     -30.31680000     -69.16920000
C      -48.64110000     -35.13110000     -69.81700000
H      -49.27330000     -35.80340000     -69.26580000
H      -49.17820000     -34.46480000     -70.48060000
S      -44.50220000     -30.40180000     -68.99140000
S      -47.77810000     -36.23810000     -70.90840000
C      -44.06990000     -31.37020000     -70.52050000
H      -43.20910000     -30.91090000     -70.96030000
H      -43.71100000     -32.34800000     -70.17690000
C      -46.83580000     -35.12790000     -71.97000000
H      -47.40500000     -34.16920000     -72.17310000
H      -46.63830000     -35.58530000     -72.93140000
C      -45.37890000     -34.83550000     -71.43180000
H      -45.29110000     -33.98060000     -70.70710000
H      -45.10760000     -35.73970000     -70.80580000
C      -45.11440000     -31.33740000     -71.65280000
H      -45.52340000     -30.40090000     -71.82250000
H      -45.91580000     -31.96620000     -71.33580000
C      -44.40380000     -31.92070000     -72.89470000
C      -43.99290000     -31.06470000     -73.90710000
C      -44.16130000     -33.29460000     -73.17980000
H      -44.12040000     -29.98580000     -73.78410000
C      -43.42970000     -33.45860000     -74.39070000
C      -44.48870000     -34.55500000     -72.62150000
C      -44.11210000     -35.56930000     -73.47450000
S      -43.07530000     -31.93680000     -75.14880000
S      -43.10550000     -35.10820000     -74.84040000
H      -44.13760000     -36.67900000     -73.45010000
