40
Properties=species:S:1:pos:R:3 #=T CELL(abcABC):=T 1.889726e+02=T 90.00000=T Traj:=T positionsangstrom=T Step:=T 0=T Bead:=T pbc="F F F"
C      -46.66500000     -35.28390000     -68.12100000
C      -47.61540000     -34.52920000     -68.83430000
C      -47.50470000     -33.13090000     -68.92430000
C      -46.42280000     -32.47130000     -68.40790000
C      -45.55400000     -33.19650000     -67.61630000
C      -45.77580000     -34.57670000     -67.38780000
H      -46.80080000     -36.30960000     -67.83000000
H      -48.40660000     -32.60030000     -69.39370000
H      -44.85100000     -32.65860000     -67.00090000
H      -45.13480000     -35.13390000     -66.72010000
C      -46.32840000     -30.92770000     -68.43750000
H      -46.58500000     -30.61010000     -67.46540000
H      -47.15630000     -30.50370000     -69.07740000
C      -48.62180000     -35.33420000     -69.59240000
H      -49.01170000     -36.14340000     -68.92040000
H      -49.52740000     -34.69340000     -69.79850000
S      -44.68210000     -30.22130000     -68.91890000
S      -47.96390000     -36.19740000     -71.03320000
C      -44.26720000     -31.41770000     -70.33790000
H      -43.26100000     -31.24560000     -70.55690000
H      -44.30320000     -32.41190000     -69.92250000
C      -47.02190000     -34.94750000     -72.01110000
H      -47.58270000     -33.99640000     -72.16520000
H      -46.91200000     -35.39560000     -72.97770000
C      -45.49890000     -34.77650000     -71.53920000
H      -45.36750000     -34.01590000     -70.79300000
H      -45.35060000     -35.69450000     -70.99650000
C      -45.24050000     -31.45520000     -71.56310000
H      -45.56740000     -30.41030000     -71.66780000
H      -46.12150000     -32.08860000     -71.40780000
C      -44.38150000     -31.89510000     -72.78730000
C      -43.56750000     -30.98790000     -73.51830000
C      -44.24560000     -33.26520000     -73.13230000
H      -43.65160000     -29.90170000     -73.50080000
C      -43.44040000     -33.41190000     -74.31650000
C      -44.59150000     -34.60220000     -72.68380000
C      -44.18050000     -35.54290000     -73.55390000
S      -42.79290000     -31.81160000     -74.85570000
S      -43.31420000     -34.97950000     -74.98650000
H      -44.40880000     -36.62310000     -73.40330000
