40
Properties=species:S:1:pos:R:3 #=T CELL(abcABC):=T 1.889726e+02=T 90.00000=T Traj:=T positionsangstrom=T Step:=T 0=T Bead:=T pbc="F F F"
C      -46.53050000     -30.97970000     -74.56980000
C      -45.41640000     -30.72750000     -73.82620000
C      -45.52440000     -30.37340000     -72.45530000
C      -46.75400000     -30.19560000     -71.87710000
C      -47.86130000     -30.51770000     -72.65460000
C      -47.78670000     -30.92270000     -73.98830000
H      -46.27890000     -31.16880000     -75.64760000
H      -44.60350000     -30.35080000     -71.86230000
H      -48.90300000     -30.50410000     -72.21540000
H      -48.71650000     -30.98460000     -74.57340000
C      -46.98090000     -29.80610000     -70.45250000
H      -47.62470000     -28.92650000     -70.26910000
H      -46.06320000     -29.50690000     -69.94480000
C      -44.04290000     -31.13090000     -74.39470000
H      -44.24570000     -31.98390000     -75.04300000
H      -43.55350000     -30.49320000     -75.16420000
S      -47.73570000     -31.16720000     -69.31050000
S      -42.70430000     -31.55000000     -73.24240000
C      -46.51080000     -32.47920000     -69.28750000
H      -45.42990000     -32.07600000     -69.25910000
H      -46.57020000     -32.97440000     -68.26900000
C      -43.31160000     -33.32930000     -72.77690000
H      -42.68870000     -34.06050000     -73.24160000
H      -44.26280000     -33.36750000     -73.20890000
C      -43.31440000     -33.51320000     -71.24620000
H      -42.33390000     -33.15900000     -70.85460000
H      -43.93860000     -32.84080000     -70.71840000
C      -46.76530000     -33.57020000     -70.47270000
H      -46.45020000     -33.17820000     -71.48750000
H      -47.88830000     -33.83970000     -70.47800000
C      -46.18970000     -34.95010000     -70.17760000
C      -46.99840000     -35.99330000     -69.84150000
C      -44.80880000     -35.39760000     -70.34170000
H      -48.04370000     -35.94350000     -69.62920000
C      -44.66520000     -36.74640000     -70.02800000
C      -43.51790000     -34.91000000     -70.84440000
C      -42.47790000     -35.86400000     -70.78230000
S      -46.16280000     -37.57290000     -69.63970000
S      -43.04310000     -37.40500000     -70.21580000
H      -41.47440000     -35.66170000     -71.12090000
