40
Properties=species:S:1:pos:R:3 #=T CELL(abcABC):=T 1.889726e+02=T 90.00000=T Traj:=T positionsangstrom=T Step:=T 0=T Bead:=T pbc="F F F"
C      -46.55010000     -30.86030000     -74.83840000
C      -45.41530000     -30.96040000     -74.00340000
C      -45.50940000     -30.61910000     -72.65620000
C      -46.73250000     -30.38440000     -72.09970000
C      -47.86850000     -30.46970000     -72.91860000
C      -47.76860000     -30.61310000     -74.28280000
H      -46.43580000     -30.99240000     -75.88340000
H      -44.63940000     -30.49630000     -71.97320000
H      -48.77210000     -30.57980000     -72.38370000
H      -48.70150000     -30.70150000     -74.81470000
C      -46.68480000     -30.04870000     -70.63610000
H      -46.96320000     -29.05490000     -70.33780000
H      -45.65410000     -30.25930000     -70.32370000
C      -43.99530000     -31.23360000     -74.57580000
H      -43.99740000     -31.88830000     -75.41080000
H      -43.55630000     -30.32840000     -75.05270000
S      -47.83890000     -31.11540000     -69.61260000
S      -42.60610000     -31.72750000     -73.43120000
C      -46.88870000     -32.70710000     -69.35860000
H      -45.95560000     -32.57120000     -68.88040000
H      -47.36850000     -33.28650000     -68.59500000
C      -43.20940000     -33.35890000     -72.68240000
H      -42.64630000     -34.15730000     -73.19030000
H      -44.27900000     -33.55170000     -72.94600000
C      -43.11490000     -33.47570000     -71.16800000
H      -42.19690000     -32.99190000     -70.85110000
H      -43.78140000     -32.71620000     -70.74270000
C      -46.64890000     -33.51190000     -70.61890000
H      -45.99400000     -32.81370000     -71.21620000
H      -47.64850000     -33.59360000     -71.09790000
C      -46.14090000     -34.88550000     -70.23060000
C      -47.01610000     -35.77630000     -69.78060000
C      -44.75570000     -35.38380000     -70.22310000
H      -48.14920000     -35.68600000     -69.82060000
C      -44.75190000     -36.72080000     -69.75570000
C      -43.43600000     -34.90000000     -70.55260000
C      -42.46780000     -35.78600000     -70.23260000
S      -46.30220000     -37.40250000     -69.49160000
S      -43.11650000     -37.32810000     -69.62210000
H      -41.38700000     -35.78710000     -70.34310000
