40
Properties=species:S:1:pos:R:3 #=T CELL(abcABC):=T 1.889726e+02=T 90.00000=T Traj:=T positionsangstrom=T Step:=T 0=T Bead:=T pbc="F F F"
C      -47.12450000     -35.41190000     -67.90280000
C      -47.59940000     -34.44770000     -68.75610000
C      -46.82390000     -33.31880000     -68.94020000
C      -45.83010000     -32.92060000     -68.02850000
C      -45.33640000     -33.89730000     -67.11980000
C      -46.02140000     -35.10080000     -67.04720000
H      -47.62210000     -36.38950000     -67.75900000
H      -47.26110000     -32.58470000     -69.54750000
H      -44.56420000     -33.66200000     -66.43820000
H      -45.54260000     -35.83320000     -66.36210000
C      -45.33410000     -31.50210000     -67.96520000
H      -45.20770000     -31.39570000     -66.87250000
H      -46.14960000     -30.85800000     -68.37330000
C      -48.88230000     -34.55970000     -69.49470000
H      -49.59250000     -35.02300000     -68.78960000
H      -49.12830000     -33.52460000     -69.77720000
S      -43.56520000     -31.04110000     -68.58670000
S      -48.67070000     -35.56340000     -71.05040000
C      -43.38990000     -31.99440000     -70.18960000
H      -42.43540000     -31.99650000     -70.55430000
H      -43.54520000     -33.04430000     -70.05040000
C      -47.38730000     -34.61170000     -71.99620000
H      -47.58800000     -33.55470000     -71.81780000
H      -47.67620000     -34.71670000     -73.00690000
C      -45.85840000     -34.86120000     -71.89420000
H      -45.48940000     -34.48720000     -70.92740000
H      -45.57950000     -35.87870000     -71.80660000
C      -44.45360000     -31.53600000     -71.23010000
H      -44.68040000     -30.44430000     -71.09670000
H      -45.35540000     -32.01020000     -70.88760000
C      -44.14560000     -31.74200000     -72.68440000
C      -43.32520000     -30.93910000     -73.43700000
C      -44.38530000     -33.08290000     -73.30080000
H      -43.07810000     -29.93210000     -73.21280000
C      -43.77880000     -33.14810000     -74.57520000
C      -45.12890000     -34.34380000     -73.10740000
C      -45.02770000     -35.17320000     -74.18470000
S      -42.83760000     -31.75070000     -74.93690000
S      -44.21650000     -34.50630000     -75.62350000
H      -45.41740000     -36.18840000     -74.34380000
