40
Properties=species:S:1:pos:R:3 #=T CELL(abcABC):=T 1.889726e+02=T 90.00000=T Traj:=T positionsangstrom=T Step:=T 0=T Bead:=T pbc="F F F"
C      -47.51520000     -35.53690000     -68.08840000
C      -47.67550000     -34.34260000     -68.85230000
C      -46.80100000     -33.31120000     -68.74870000
C      -45.71770000     -33.33900000     -67.85550000
C      -45.49800000     -34.51720000     -67.12060000
C      -46.39110000     -35.57410000     -67.29760000
H      -48.21820000     -36.34280000     -68.13280000
H      -47.08790000     -32.49410000     -69.39360000
H      -44.62510000     -34.61730000     -66.51280000
H      -45.95560000     -36.50040000     -66.81840000
C      -44.90340000     -32.08540000     -67.63580000
H      -44.74780000     -31.99130000     -66.51830000
H      -45.48830000     -31.21100000     -67.84390000
C      -48.85520000     -34.31540000     -69.79860000
H      -49.78120000     -34.67500000     -69.35310000
H      -48.98820000     -33.29880000     -70.16410000
S      -43.24190000     -32.08640000     -68.54470000
S      -48.60150000     -35.47270000     -71.29880000
C      -43.75080000     -32.71700000     -70.15710000
H      -42.87560000     -32.95420000     -70.67880000
H      -44.40560000     -33.63520000     -69.99630000
C      -47.53890000     -34.46090000     -72.47860000
H      -47.96270000     -33.40610000     -72.51050000
H      -47.82700000     -34.87770000     -73.49870000
C      -46.02890000     -34.45860000     -72.11940000
H      -45.91740000     -33.89330000     -71.22830000
H      -45.85960000     -35.54110000     -71.91790000
C      -44.60400000     -31.61670000     -70.96030000
H      -44.47630000     -30.61770000     -70.51850000
H      -45.68730000     -31.85110000     -70.85910000
C      -44.18550000     -31.68940000     -72.43390000
C      -43.45480000     -30.66080000     -72.98410000
C      -44.45820000     -32.78690000     -73.33880000
H      -43.07590000     -29.85300000     -72.43760000
C      -43.69600000     -32.68090000     -74.51600000
C      -45.14290000     -34.01770000     -73.23800000
C      -45.07720000     -34.73910000     -74.40970000
S      -42.84770000     -31.12910000     -74.63290000
S      -43.97100000     -34.01450000     -75.61430000
H      -45.49440000     -35.73310000     -74.50940000
