40
Properties=species:S:1:pos:R:3 #=T CELL(abcABC):=T 1.889726e+02=T 90.00000=T Traj:=T positionsangstrom=T Step:=T 0=T Bead:=T pbc="F F F"
C      -47.39660000     -35.45050000     -68.08760000
C      -47.65360000     -34.29510000     -68.89350000
C      -46.78310000     -33.19600000     -68.73430000
C      -45.71590000     -33.18950000     -67.83760000
C      -45.47310000     -34.43480000     -67.06320000
C      -46.39700000     -35.47850000     -67.09600000
H      -48.11940000     -36.18760000     -68.20270000
H      -47.02640000     -32.19540000     -69.11240000
H      -44.75050000     -34.51120000     -66.17750000
H      -46.23880000     -36.36590000     -66.49120000
C      -44.76700000     -31.99960000     -67.70650000
H      -44.49980000     -31.87820000     -66.66030000
H      -45.20000000     -30.99440000     -67.96780000
C      -48.78830000     -34.18740000     -69.86450000
H      -49.76580000     -34.35030000     -69.34470000
H      -48.94120000     -33.19620000     -70.31450000
S      -43.16740000     -32.17130000     -68.47230000
S      -48.66410000     -35.41330000     -71.22620000
C      -43.62960000     -32.63560000     -70.15990000
H      -42.65620000     -32.59310000     -70.77300000
H      -43.94980000     -33.64320000     -70.23400000
C      -47.66210000     -34.53860000     -72.56230000
H      -48.00810000     -33.54740000     -72.72130000
H      -47.64870000     -35.14930000     -73.43610000
C      -46.17130000     -34.45060000     -72.13900000
H      -45.94200000     -33.81760000     -71.31250000
H      -45.80000000     -35.38540000     -71.58660000
C      -44.57830000     -31.67240000     -70.91920000
H      -44.44530000     -30.66580000     -70.55240000
H      -45.62260000     -31.90510000     -70.66920000
C      -44.20530000     -31.76740000     -72.42640000
C      -43.41450000     -30.76820000     -73.05260000
C      -44.46680000     -32.88840000     -73.32460000
H      -42.98650000     -29.96450000     -72.46380000
C      -43.70930000     -32.76880000     -74.52490000
C      -45.23670000     -34.11080000     -73.29080000
C      -45.01960000     -34.82960000     -74.48540000
S      -43.05470000     -31.12940000     -74.71500000
S      -43.90330000     -34.10320000     -75.63250000
H      -45.51970000     -35.73700000     -74.67830000
