40
Properties=species:S:1:pos:R:3 #=T CELL(abcABC):=T 1.889726e+02=T 90.00000=T Traj:=T positionsangstrom=T Step:=T 0=T Bead:=T pbc="F F F"
C      -47.47870000     -35.19940000     -68.09170000
C      -47.75560000     -34.06410000     -68.88770000
C      -46.88340000     -32.94380000     -68.76580000
C      -45.75420000     -32.95240000     -67.88460000
C      -45.52550000     -34.10450000     -67.11730000
C      -46.35420000     -35.28350000     -67.20080000
H      -48.15830000     -36.08460000     -68.19130000
H      -47.08470000     -31.96390000     -69.21290000
H      -44.67430000     -34.11910000     -66.46630000
H      -46.29280000     -36.16830000     -66.54510000
C      -44.85770000     -31.75470000     -67.81880000
H      -44.77170000     -31.41720000     -66.75880000
H      -45.27600000     -30.84680000     -68.35220000
C      -48.84650000     -34.13150000     -69.95290000
H      -49.86830000     -34.31970000     -69.65120000
H      -48.98020000     -33.18440000     -70.49050000
S      -43.14570000     -32.14710000     -68.39530000
S      -48.44750000     -35.52510000     -71.14050000
C      -43.45100000     -32.63020000     -70.19270000
H      -42.54700000     -32.66260000     -70.68050000
H      -43.88680000     -33.66670000     -70.15440000
C      -47.32490000     -34.62540000     -72.31370000
H      -47.81080000     -33.64130000     -72.54520000
H      -47.43260000     -35.26410000     -73.26560000
C      -45.85190000     -34.59350000     -71.85670000
H      -45.57070000     -33.83330000     -71.12510000
H      -45.64300000     -35.59510000     -71.52480000
C      -44.43950000     -31.75250000     -71.02390000
H      -44.21580000     -30.68720000     -70.74450000
H      -45.51020000     -31.96290000     -70.79190000
C      -44.14260000     -31.85220000     -72.49210000
C      -43.40420000     -30.89150000     -73.16790000
C      -44.40640000     -32.98060000     -73.35560000
H      -43.15510000     -29.87140000     -72.68460000
C      -44.00360000     -32.79050000     -74.65240000
C      -45.06480000     -34.28720000     -73.07320000
C      -45.01620000     -34.99050000     -74.25120000
S      -43.12830000     -31.24880000     -74.88000000
S      -44.28350000     -34.23220000     -75.63230000
H      -45.42940000     -36.04670000     -74.27000000
