40
Properties=species:S:1:pos:R:3 #=T CELL(abcABC):=T 1.889726e+02=T 90.00000=T Traj:=T positionsangstrom=T Step:=T 0=T Bead:=T pbc="F F F"
C      -46.08600000     -30.56020000     -73.72200000
C      -45.08080000     -30.44150000     -72.80620000
C      -45.31750000     -30.17050000     -71.44470000
C      -46.66540000     -30.12660000     -70.99500000
C      -47.64940000     -30.04680000     -71.95520000
C      -47.40090000     -30.38550000     -73.26300000
H      -45.78060000     -30.69930000     -74.79520000
H      -44.48440000     -30.15350000     -70.64740000
H      -48.67160000     -30.09450000     -71.55790000
H      -48.32280000     -30.52460000     -73.92590000
C      -47.01230000     -30.08520000     -69.54930000
H      -47.77670000     -29.25900000     -69.33650000
H      -46.08500000     -29.80690000     -68.96390000
C      -43.61480000     -30.46680000     -73.34970000
H      -43.61010000     -31.18170000     -74.16610000
H      -43.14990000     -29.55070000     -73.55280000
S      -47.76600000     -31.70160000     -68.79030000
S      -42.31050000     -31.01430000     -72.19520000
C      -46.41740000     -33.02140000     -69.07570000
H      -45.50710000     -32.45170000     -69.05340000
H      -46.37550000     -33.75080000     -68.29520000
C      -42.39780000     -32.91180000     -72.14640000
H      -41.43350000     -33.26000000     -71.76910000
H      -42.51510000     -33.34310000     -73.13670000
C      -43.57300000     -33.50950000     -71.32950000
H      -43.39310000     -33.39950000     -70.25020000
H      -44.43760000     -32.94550000     -71.69170000
C      -46.75440000     -33.69380000     -70.38230000
H      -46.44220000     -33.19730000     -71.28890000
H      -47.83010000     -33.73140000     -70.56050000
C      -46.28890000     -35.21950000     -70.51100000
C      -47.01950000     -36.27950000     -70.04820000
C      -45.08690000     -35.67980000     -71.14360000
H      -48.01800000     -36.23530000     -69.68200000
C      -45.04340000     -37.03830000     -71.31610000
C      -43.91450000     -34.96520000     -71.65460000
C      -43.02890000     -35.81450000     -72.24330000
S      -46.47150000     -37.88350000     -70.71320000
S      -43.61380000     -37.52880000     -72.10790000
H      -41.99540000     -35.46190000     -72.54940000
