40
Properties=species:S:1:pos:R:3 #=T CELL(abcABC):=T 1.889726e+02=T 90.00000=T Traj:=T positionsangstrom=T Step:=T 0=T Bead:=T pbc="F F F"
C      -47.05100000     -33.67020000     -67.75150000
C      -47.59080000     -34.32290000     -68.88850000
C      -46.91090000     -35.41770000     -69.35460000
C      -45.79620000     -35.93530000     -68.70180000
C      -45.43710000     -35.38740000     -67.40500000
C      -46.04900000     -34.19860000     -67.01460000
H      -47.36010000     -32.64680000     -67.46640000
H      -47.33100000     -35.86420000     -70.25620000
H      -44.70210000     -35.83700000     -66.80720000
H      -45.80000000     -33.61590000     -66.13820000
C      -45.01090000     -37.08710000     -69.26270000
H      -45.67310000     -37.94360000     -69.17450000
H      -44.12290000     -37.20230000     -68.80930000
C      -48.82080000     -33.67180000     -69.54720000
H      -49.70110000     -34.27850000     -69.35790000
H      -49.00620000     -32.68560000     -69.04470000
S      -45.03880000     -36.90820000     -71.18560000
S      -48.72790000     -33.43160000     -71.34550000
C      -43.73510000     -35.56760000     -71.50220000
H      -43.36290000     -35.31620000     -70.44470000
H      -42.94100000     -35.79870000     -72.23720000
C      -47.20980000     -32.42090000     -71.58180000
H      -46.38750000     -32.71240000     -70.89000000
H      -47.51290000     -31.40650000     -71.54580000
C      -46.74700000     -32.48580000     -73.06550000
H      -46.46750000     -33.50760000     -73.21830000
H      -47.62330000     -32.24070000     -73.72150000
C      -44.45840000     -34.36170000     -71.94800000
H      -45.31950000     -34.12660000     -71.28580000
H      -44.92650000     -34.59530000     -72.89800000
C      -43.66360000     -33.09070000     -72.26290000
C      -42.36060000     -32.88390000     -71.95840000
C      -44.23380000     -31.91540000     -72.86540000
H      -41.64910000     -33.67590000     -71.69190000
C      -43.29540000     -31.01470000     -73.28930000
C      -45.56060000     -31.60230000     -73.29140000
C      -45.53870000     -30.42160000     -73.96420000
S      -41.72640000     -31.42160000     -72.60460000
S      -43.92390000     -29.65050000     -74.13950000
H      -46.31610000     -30.05340000     -74.51430000
