40
Properties=species:S:1:pos:R:3 #=T CELL(abcABC):=T 1.889726e+02=T 90.00000=T Traj:=T positionsangstrom=T Step:=T 0=T Bead:=T pbc="F F F"
C      -46.12600000     -30.19070000     -73.59920000
C      -45.01150000     -30.31350000     -72.77050000
C      -45.23320000     -30.28690000     -71.40210000
C      -46.49710000     -30.41140000     -70.86460000
C      -47.63000000     -30.30670000     -71.70470000
C      -47.42440000     -30.26010000     -73.05950000
H      -46.12440000     -29.89790000     -74.61810000
H      -44.39400000     -30.32770000     -70.73350000
H      -48.58310000     -30.39300000     -71.28600000
H      -48.27740000     -30.24640000     -73.77180000
C      -46.70830000     -30.36310000     -69.32640000
H      -47.21060000     -29.46270000     -69.06140000
H      -45.76620000     -30.34450000     -68.85950000
C      -43.52300000     -30.06630000     -73.19380000
H      -43.37230000     -30.17130000     -74.24310000
H      -43.29030000     -29.06680000     -72.81580000
S      -47.58210000     -31.76690000     -68.63100000
S      -42.24820000     -31.18580000     -72.56840000
C      -46.60050000     -33.23750000     -69.38750000
H      -45.50320000     -33.11590000     -69.32870000
H      -46.90040000     -34.08620000     -68.70970000
C      -42.84420000     -32.93220000     -72.74340000
H      -42.00510000     -33.56640000     -73.04860000
H      -43.60530000     -32.94460000     -73.56370000
C      -43.54230000     -33.43180000     -71.50940000
H      -42.87330000     -33.11160000     -70.64160000
H      -44.49870000     -32.93030000     -71.53180000
C      -47.10040000     -33.74020000     -70.82140000
H      -46.79910000     -33.11420000     -71.61680000
H      -48.23650000     -33.72050000     -70.82360000
C      -46.59600000     -35.12220000     -71.01910000
C      -47.36190000     -36.23750000     -70.80470000
C      -45.14640000     -35.47900000     -71.18990000
H      -48.37290000     -36.18220000     -70.33840000
C      -45.07900000     -36.85980000     -71.25090000
C      -43.78430000     -34.90810000     -71.31940000
C      -42.82100000     -35.91280000     -71.49750000
S      -46.57300000     -37.77800000     -70.85270000
S      -43.44950000     -37.55310000     -71.51240000
H      -41.76940000     -35.66480000     -71.64010000
