40
Properties=species:S:1:pos:R:3 #=T CELL(abcABC):=T 1.889726e+02=T 90.00000=T Traj:=T positionsangstrom=T Step:=T 0=T Bead:=T pbc="F F F"
C      -42.69740000     -30.58670000     -69.42940000
C      -42.80390000     -31.99190000     -69.48360000
C      -42.55520000     -32.65370000     -70.70830000
C      -42.16960000     -32.02190000     -71.91900000
C      -42.12960000     -30.60800000     -71.87080000
C      -42.47800000     -29.95090000     -70.66960000
H      -42.80910000     -29.96090000     -68.55200000
H      -42.61560000     -33.77980000     -70.66580000
H      -41.87530000     -30.06860000     -72.80680000
H      -42.46640000     -28.88450000     -70.78330000
C      -41.80950000     -32.76290000     -73.18780000
H      -41.58490000     -33.82410000     -73.02700000
H      -40.81380000     -32.41940000     -73.63750000
C      -42.92620000     -32.73300000     -68.21560000
H      -42.52990000     -33.76510000     -68.29630000
H      -42.22010000     -32.20030000     -67.50290000
S      -43.00600000     -32.64190000     -74.60670000
S      -44.56080000     -32.87030000     -67.40790000
C      -44.45690000     -33.82540000     -74.08920000
H      -44.92580000     -34.26670000     -74.94610000
H      -43.99030000     -34.61070000     -73.49180000
C      -45.64110000     -33.82490000     -68.54890000
H      -46.47690000     -34.01350000     -67.88070000
H      -45.04480000     -34.73090000     -68.73280000
C      -46.10000000     -33.03270000     -69.77190000
H      -46.48070000     -32.07880000     -69.35470000
H      -45.22550000     -32.91480000     -70.40890000
C      -45.49660000     -33.03900000     -73.29190000
H      -45.96390000     -32.19700000     -73.88760000
H      -45.03690000     -32.54680000     -72.47130000
C      -46.68020000     -33.98110000     -72.92760000
C      -47.21540000     -34.78260000     -73.96490000
C      -47.36030000     -34.17870000     -71.71990000
H      -46.59700000     -34.91620000     -74.84290000
C      -48.46250000     -35.04140000     -71.89400000
C      -47.19700000     -33.77880000     -70.36750000
C      -48.20370000     -34.32560000     -69.61550000
S      -48.49900000     -35.80300000     -73.51940000
S      -49.23250000     -35.41860000     -70.41220000
H      -48.38050000     -34.02370000     -68.55410000
