40
Properties=species:S:1:pos:R:3 #=T CELL(abcABC):=T 1.889726e+02=T 90.00000=T Traj:=T positionsangstrom=T Step:=T 0=T Bead:=T pbc="F F F"
C      -46.39110000     -35.17170000     -68.16100000
C      -47.12400000     -33.98800000     -68.42350000
C      -46.38560000     -32.80430000     -68.25240000
C      -45.01160000     -32.74770000     -68.00240000
C      -44.26230000     -33.89140000     -67.88100000
C      -44.99100000     -35.12000000     -68.03160000
H      -46.84660000     -36.11970000     -68.24730000
H      -46.92060000     -31.85510000     -68.47590000
H      -43.13320000     -33.88720000     -67.89490000
H      -44.39570000     -36.01800000     -67.85180000
C      -44.34920000     -31.39750000     -67.98700000
H      -44.03470000     -31.10040000     -66.95200000
H      -44.95590000     -30.58260000     -68.33560000
C      -48.51560000     -34.06250000     -68.88300000
H      -49.05290000     -34.68130000     -68.14050000
H      -49.08570000     -33.17530000     -69.00980000
S      -42.78140000     -31.21720000     -69.07960000
S      -48.59200000     -35.12600000     -70.34200000
C      -43.22390000     -32.23460000     -70.54720000
H      -42.43350000     -32.00670000     -71.29490000
H      -43.16800000     -33.30200000     -70.29570000
C      -47.48550000     -34.23450000     -71.53820000
H      -47.58250000     -33.18780000     -71.40410000
H      -47.94780000     -34.61520000     -72.47460000
C      -46.03800000     -34.82460000     -71.59120000
H      -45.56900000     -34.30320000     -70.81930000
H      -46.05060000     -35.87850000     -71.34830000
C      -44.53600000     -31.93860000     -71.21460000
H      -44.86690000     -30.99940000     -70.93990000
H      -45.37380000     -32.59880000     -70.76850000
C      -44.49720000     -32.19660000     -72.68810000
C      -44.06150000     -31.23880000     -73.53580000
C      -44.90670000     -33.36190000     -73.39010000
H      -43.63540000     -30.26030000     -73.24120000
C      -44.44660000     -33.38240000     -74.69700000
C      -45.53460000     -34.56720000     -73.02890000
C      -45.56700000     -35.47350000     -74.07840000
S      -44.00350000     -31.73580000     -75.18540000
S      -45.00070000     -34.78210000     -75.56300000
H      -46.11520000     -36.42710000     -74.08570000
