40
Properties=species:S:1:pos:R:3 #=T CELL(abcABC):=T 1.889726e+02=T 90.00000=T Traj:=T positionsangstrom=T Step:=T 0=T Bead:=T pbc="F F F"
C      -47.31650000     -33.64680000     -68.12080000
C      -47.95900000     -34.10310000     -69.22600000
C      -47.51960000     -35.25310000     -69.86210000
C      -46.40980000     -35.94880000     -69.44840000
C      -45.66390000     -35.44520000     -68.37750000
C      -46.12530000     -34.27890000     -67.71530000
H      -47.81130000     -32.84950000     -67.50220000
H      -48.13060000     -35.75730000     -70.60910000
H      -44.75950000     -36.00050000     -68.06100000
H      -45.65030000     -33.88730000     -66.83220000
C      -45.95140000     -37.25090000     -70.05230000
H      -46.70290000     -38.04180000     -69.92210000
H      -44.98480000     -37.52230000     -69.57350000
C      -49.09090000     -33.23870000     -69.82840000
H      -49.98920000     -33.87500000     -70.19650000
H      -49.46240000     -32.41020000     -69.18990000
S      -45.71020000     -37.16100000     -71.90950000
S      -48.81200000     -32.34820000     -71.52060000
C      -44.27180000     -35.95590000     -72.19410000
H      -43.67200000     -35.91870000     -71.23770000
H      -43.61950000     -36.38560000     -72.98780000
C      -47.03460000     -31.78530000     -71.37060000
H      -46.44030000     -32.53420000     -70.92780000
H      -46.90130000     -30.81620000     -70.91170000
C      -46.52120000     -31.59590000     -72.85440000
H      -46.73960000     -32.49840000     -73.50830000
H      -47.08040000     -30.76210000     -73.32890000
C      -44.77120000     -34.59580000     -72.50150000
H      -45.28960000     -34.20260000     -71.61010000
H      -45.45640000     -34.64390000     -73.39620000
C      -43.65160000     -33.54780000     -72.67880000
C      -42.30620000     -33.81280000     -72.54140000
C      -43.88610000     -32.08290000     -72.66780000
H      -41.97710000     -34.85100000     -72.52360000
C      -42.70800000     -31.40820000     -72.31940000
C      -45.00720000     -31.18560000     -72.72780000
C      -44.65780000     -29.87170000     -72.59470000
S      -41.31860000     -32.42040000     -72.15700000
S      -42.93910000     -29.69610000     -72.23820000
H      -45.33020000     -29.09210000     -72.48500000
