40
Properties=species:S:1:pos:R:3 #=T CELL(abcABC):=T 1.889726e+02=T 90.00000=T Traj:=T positionsangstrom=T Step:=T 0=T Bead:=T pbc="F F F"
C      -42.09600000     -31.01600000     -69.31660000
C      -42.59680000     -32.30840000     -69.31280000
C      -42.56900000     -32.95420000     -70.55730000
C      -41.90410000     -32.37410000     -71.67640000
C      -41.48850000     -31.04200000     -71.68170000
C      -41.65840000     -30.37290000     -70.46880000
H      -42.19250000     -30.46240000     -68.38350000
H      -43.05870000     -33.86660000     -70.65290000
H      -40.93500000     -30.62900000     -72.57190000
H      -41.38450000     -29.21660000     -70.49320000
C      -41.69110000     -33.19820000     -72.91900000
H      -41.85340000     -34.28760000     -72.73120000
H      -40.70280000     -33.24270000     -73.39470000
C      -43.28750000     -33.02410000     -68.10550000
H      -43.58230000     -34.04050000     -68.48210000
H      -42.70900000     -33.06410000     -67.21420000
S      -42.79050000     -32.87470000     -74.42160000
S      -44.82530000     -32.14620000     -67.60890000
C      -44.25530000     -33.86820000     -74.06200000
H      -44.90430000     -33.74700000     -75.00790000
H      -43.95980000     -34.90280000     -73.94660000
C      -46.07350000     -33.33690000     -68.34610000
H      -46.97490000     -33.36400000     -67.68320000
H      -45.70740000     -34.30190000     -68.55140000
C      -46.47090000     -32.72810000     -69.75050000
H      -47.04810000     -31.76570000     -69.59320000
H      -45.68390000     -32.46180000     -70.38010000
C      -45.17140000     -33.53340000     -72.87590000
H      -45.54260000     -32.52800000     -72.89940000
H      -44.54760000     -33.56160000     -71.91130000
C      -46.42750000     -34.36140000     -72.88410000
C      -46.93190000     -35.05150000     -73.92320000
C      -47.35660000     -34.28890000     -71.73130000
H      -46.48560000     -35.15590000     -74.91900000
C      -48.50430000     -34.88220000     -72.12320000
C      -47.47830000     -33.65280000     -70.34410000
C      -48.65890000     -34.10500000     -69.79300000
S      -48.53480000     -35.52120000     -73.72570000
S      -49.77030000     -34.97150000     -70.93570000
H      -48.96750000     -33.92240000     -68.79810000
