40
Properties=species:S:1:pos:R:3 #=T CELL(abcABC):=T 1.889726e+02=T 90.00000=T Traj:=T positionsangstrom=T Step:=T 0=T Bead:=T pbc="F F F"
C      -45.80720000     -33.94020000     -67.39800000
C      -46.58730000     -32.91970000     -67.97460000
C      -45.99530000     -31.76760000     -68.39200000
C      -44.57750000     -31.54960000     -68.29880000
C      -43.81690000     -32.57470000     -67.67500000
C      -44.40280000     -33.74300000     -67.23200000
H      -46.24400000     -34.82180000     -67.03090000
H      -46.61720000     -30.86860000     -68.69340000
H      -42.71790000     -32.46490000     -67.48790000
H      -43.85250000     -34.55980000     -66.89280000
C      -43.99750000     -30.28730000     -68.86840000
H      -43.40770000     -29.70820000     -68.05870000
H      -44.84320000     -29.64150000     -69.19010000
C      -48.07530000     -33.21730000     -68.23740000
H      -48.55620000     -33.53460000     -67.40540000
H      -48.60320000     -32.43810000     -68.78230000
S      -42.83530000     -30.49150000     -70.29160000
S      -48.19190000     -34.74160000     -69.21010000
C      -43.39210000     -32.04150000     -71.20010000
H      -42.56870000     -32.50600000     -71.70230000
H      -43.75850000     -32.66840000     -70.42300000
C      -47.60630000     -34.27790000     -70.86080000
H      -47.65920000     -33.18050000     -70.97940000
H      -48.33440000     -34.58520000     -71.58760000
C      -46.12520000     -34.73600000     -71.14160000
H      -45.43560000     -34.05480000     -70.66490000
H      -45.97880000     -35.70330000     -70.65430000
C      -44.56390000     -31.79990000     -72.24920000
H      -44.52400000     -30.72400000     -72.51660000
H      -45.58330000     -31.82030000     -71.79690000
C      -44.55410000     -32.69760000     -73.47020000
C      -43.92140000     -32.41270000     -74.61810000
C      -45.15570000     -34.03660000     -73.48250000
H      -43.46940000     -31.45030000     -74.74320000
C      -45.11990000     -34.56650000     -74.82300000
C      -45.89800000     -34.95270000     -72.59800000
C      -46.35140000     -36.12730000     -73.22060000
S      -44.06970000     -33.67460000     -75.84080000
S      -45.87080000     -36.11180000     -74.90740000
H      -46.68310000     -37.04180000     -72.70720000
