40
Properties=species:S:1:pos:R:3 #=T CELL(abcABC):=T 1.889726e+02=T 90.00000=T Traj:=T positionsangstrom=T Step:=T 0=T Bead:=T pbc="F F F"
C      -46.27570000     -34.70590000     -67.43230000
C      -46.87010000     -33.63510000     -68.07430000
C      -46.11220000     -32.48980000     -68.39170000
C      -44.78780000     -32.36190000     -68.06560000
C      -44.25230000     -33.40120000     -67.33150000
C      -44.96020000     -34.53360000     -67.01220000
H      -46.75400000     -35.69350000     -67.21980000
H      -46.54650000     -31.73700000     -69.04000000
H      -43.17220000     -33.45150000     -67.01540000
H      -44.38790000     -35.24480000     -66.43930000
C      -43.97450000     -31.06960000     -68.32570000
H      -43.43050000     -30.87740000     -67.46270000
H      -44.61150000     -30.20840000     -68.44810000
C      -48.30020000     -33.68030000     -68.57250000
H      -49.02560000     -34.03110000     -67.83460000
H      -48.64490000     -32.64450000     -68.81020000
S      -42.69200000     -31.15890000     -69.67110000
S      -48.37370000     -34.87130000     -70.01380000
C      -43.30500000     -32.23610000     -70.94720000
H      -42.38930000     -32.46870000     -71.51280000
H      -43.57580000     -33.21410000     -70.49490000
C      -47.44920000     -33.99020000     -71.35350000
H      -47.41060000     -32.93450000     -71.03940000
H      -47.87120000     -34.25090000     -72.31240000
C      -46.03790000     -34.64760000     -71.35740000
H      -45.41280000     -34.19990000     -70.59490000
H      -46.02970000     -35.68510000     -70.98720000
C      -44.45390000     -31.60260000     -71.78490000
H      -44.24980000     -30.46750000     -71.82340000
H      -45.46440000     -31.67500000     -71.28550000
C      -44.62150000     -32.15650000     -73.19780000
C      -44.44050000     -31.41130000     -74.39590000
C      -44.95080000     -33.54790000     -73.48360000
H      -43.99810000     -30.41840000     -74.37010000
C      -44.67260000     -33.88450000     -74.78520000
C      -45.50510000     -34.66690000     -72.73060000
C      -45.60730000     -35.81250000     -73.46500000
S      -44.54460000     -32.50580000     -75.86750000
S      -45.11780000     -35.53360000     -75.13290000
H      -45.98920000     -36.74670000     -73.08620000
