40
Properties=species:S:1:pos:R:3 #=T CELL(abcABC):=T 1.889726e+02=T 90.00000=T Traj:=T positionsangstrom=T Step:=T 0=T Bead:=T pbc="F F F"
C      -45.81520000     -34.11110000     -67.16500000
C      -46.65480000     -33.34900000     -67.98490000
C      -46.07120000     -32.30240000     -68.68590000
C      -44.77390000     -31.86840000     -68.51310000
C      -43.90680000     -32.67870000     -67.72880000
C      -44.44210000     -33.83160000     -67.07920000
H      -46.19770000     -35.02070000     -66.53100000
H      -46.67830000     -31.59720000     -69.28390000
H      -42.91470000     -32.33470000     -67.64810000
H      -43.74380000     -34.49430000     -66.50360000
C      -44.21800000     -30.62500000     -69.09010000
H      -44.10850000     -29.86670000     -68.37830000
H      -44.86900000     -30.25340000     -69.84770000
C      -48.07470000     -33.68980000     -68.15670000
H      -48.48590000     -34.39350000     -67.35900000
H      -48.77290000     -32.82200000     -68.21770000
S      -42.62580000     -30.97540000     -69.89190000
S      -48.53350000     -34.67710000     -69.64990000
C      -43.19300000     -32.18370000     -71.20270000
H      -42.32250000     -32.25870000     -71.85190000
H      -43.44730000     -33.13270000     -70.67330000
C      -47.55930000     -33.94220000     -71.07130000
H      -47.51130000     -32.81250000     -70.99480000
H      -48.20230000     -34.13550000     -71.93820000
C      -46.13000000     -34.56810000     -71.10310000
H      -45.39120000     -33.86280000     -70.74910000
H      -46.17170000     -35.43280000     -70.43440000
C      -44.39020000     -31.69320000     -72.00030000
H      -44.31050000     -30.62800000     -72.26280000
H      -45.34470000     -31.68870000     -71.44020000
C      -44.53620000     -32.48460000     -73.29120000
C      -43.90550000     -32.10600000     -74.41660000
C      -45.12880000     -33.81190000     -73.42540000
H      -43.25370000     -31.24360000     -74.62710000
C      -45.00020000     -34.29900000     -74.72290000
C      -45.72150000     -34.84120000     -72.57090000
C      -46.12790000     -35.98600000     -73.25350000
S      -44.21960000     -33.17310000     -75.79890000
S      -45.71760000     -35.88870000     -75.00690000
H      -46.57390000     -36.87410000     -72.78380000
