40
Properties=species:S:1:pos:R:3 #=T CELL(abcABC):=T 1.889726e+02=T 90.00000=T Traj:=T positionsangstrom=T Step:=T 0=T Bead:=T pbc="F F F"
C      -42.78680000     -31.47160000     -69.00090000
C      -43.69810000     -31.63620000     -70.07380000
C      -43.25890000     -32.18230000     -71.28890000
C      -42.01900000     -32.76540000     -71.43880000
C      -41.07240000     -32.59700000     -70.34820000
C      -41.51350000     -32.03390000     -69.14210000
H      -42.98260000     -30.87130000     -68.13180000
H      -43.88590000     -32.26630000     -72.12940000
H      -40.02630000     -32.80920000     -70.53720000
H      -40.79550000     -32.01320000     -68.28450000
C      -41.53900000     -33.31150000     -72.77990000
H      -40.44370000     -33.25960000     -72.98150000
H      -42.02810000     -32.70850000     -73.52940000
C      -45.09620000     -31.09780000     -70.01080000
H      -45.11670000     -30.03520000     -69.70730000
H      -45.62290000     -31.16660000     -70.94300000
S      -41.95420000     -35.10250000     -72.94970000
S      -45.94020000     -32.10370000     -68.71910000
C      -43.76180000     -35.05530000     -73.40580000
H      -43.88100000     -34.12790000     -74.04080000
H      -43.92190000     -35.92740000     -74.00200000
C      -45.37350000     -33.83070000     -68.86990000
H      -44.89970000     -34.20880000     -67.95570000
H      -44.68260000     -33.91460000     -69.73140000
C      -46.45510000     -34.83280000     -69.21680000
H      -45.99230000     -35.82370000     -69.58390000
H      -47.01230000     -35.15900000     -68.32840000
C      -44.79070000     -34.92240000     -72.33900000
H      -44.33570000     -34.53750000     -71.42440000
H      -45.08850000     -35.97070000     -71.99330000
C      -46.14470000     -34.26110000     -72.65100000
C      -46.36030000     -33.90570000     -73.98990000
C      -47.18020000     -34.04400000     -71.70510000
H      -45.73900000     -34.11220000     -74.84710000
C      -48.29290000     -33.66520000     -72.40290000
C      -47.46300000     -34.27730000     -70.26820000
C      -48.70320000     -33.82470000     -69.96680000
S      -48.02970000     -33.30490000     -74.07820000
S      -49.68200000     -33.38090000     -71.32080000
H      -49.20880000     -34.10630000     -69.09320000
