40
Properties=species:S:1:pos:R:3 #=T CELL(abcABC):=T 1.889726e+02=T 90.00000=T Traj:=T positionsangstrom=T Step:=T 0=T Bead:=T pbc="F F F"
C      -45.58980000     -33.73380000     -67.42710000
C      -46.48090000     -32.86840000     -68.04990000
C      -46.00620000     -31.63340000     -68.44320000
C      -44.61270000     -31.35040000     -68.39850000
C      -43.70930000     -32.30590000     -67.90430000
C      -44.25450000     -33.48520000     -67.42100000
H      -45.96280000     -34.69480000     -67.10110000
H      -46.77910000     -31.10170000     -69.03850000
H      -42.62780000     -32.16050000     -67.97230000
H      -43.65070000     -34.26860000     -66.99630000
C      -44.05470000     -30.09040000     -69.11550000
H      -43.43760000     -29.47230000     -68.57230000
H      -44.84370000     -29.41600000     -69.52670000
C      -47.99760000     -33.13170000     -68.13570000
H      -48.44070000     -33.19840000     -67.13310000
H      -48.46510000     -32.19000000     -68.57890000
S      -42.89320000     -30.61040000     -70.46920000
S      -48.36210000     -34.69000000     -69.07210000
C      -43.66340000     -32.14940000     -71.12830000
H      -42.85980000     -32.77870000     -71.56010000
H      -44.06420000     -32.76260000     -70.23380000
C      -47.69270000     -34.36770000     -70.79230000
H      -47.68210000     -33.29320000     -70.97470000
H      -48.28110000     -34.95770000     -71.53150000
C      -46.19920000     -34.84830000     -71.03320000
H      -45.57430000     -34.07240000     -70.66490000
H      -45.91490000     -35.82190000     -70.54620000
C      -44.75690000     -31.88880000     -72.20040000
H      -44.67480000     -30.86900000     -72.60570000
H      -45.77170000     -32.06280000     -71.88790000
C      -44.57190000     -32.84580000     -73.39170000
C      -43.92220000     -32.46620000     -74.50690000
C      -45.19520000     -34.11070000     -73.46220000
H      -43.29760000     -31.54140000     -74.51970000
C      -45.00790000     -34.66970000     -74.72400000
C      -45.89290000     -34.99190000     -72.54130000
C      -46.33140000     -36.13370000     -73.20560000
S      -43.96290000     -33.70510000     -75.76840000
S      -45.74170000     -36.23150000     -74.85710000
H      -46.85590000     -37.06040000     -72.83620000
