40
Properties=species:S:1:pos:R:3 #=T CELL(abcABC):=T 1.889726e+02=T 90.00000=T Traj:=T positionsangstrom=T Step:=T 0=T Bead:=T pbc="F F F"
C      -42.75600000     -31.47680000     -69.22790000
C      -43.94260000     -31.90020000     -69.84460000
C      -43.88540000     -32.79830000     -70.98050000
C      -42.67010000     -33.23760000     -71.43680000
C      -41.49610000     -32.86940000     -70.72440000
C      -41.50570000     -31.89510000     -69.70030000
H      -42.79610000     -30.84200000     -68.37800000
H      -44.79800000     -33.03010000     -71.52930000
H      -40.50790000     -33.23120000     -70.99070000
H      -40.68040000     -31.56480000     -69.02800000
C      -42.55950000     -34.13140000     -72.60910000
H      -41.57820000     -34.02520000     -73.10020000
H      -43.33490000     -33.99890000     -73.30870000
C      -45.20710000     -31.41040000     -69.31690000
H      -45.03690000     -30.48210000     -68.75980000
H      -45.94320000     -31.17490000     -70.07990000
S      -42.80870000     -35.87280000     -71.93610000
S      -45.85810000     -32.54030000     -67.98130000
C      -44.34360000     -36.51710000     -72.87920000
H      -44.28220000     -36.13810000     -73.85340000
H      -44.20220000     -37.58790000     -72.96940000
C      -45.85400000     -34.11150000     -68.87240000
H      -45.66920000     -34.89740000     -68.14170000
H      -45.02420000     -34.15730000     -69.50980000
C      -47.24310000     -34.44980000     -69.53360000
H      -47.16620000     -35.47820000     -69.65930000
H      -48.04440000     -34.22870000     -68.85710000
C      -45.74290000     -36.05140000     -72.24870000
H      -45.59510000     -35.86070000     -71.14260000
H      -46.42140000     -36.86840000     -72.49700000
C      -46.14200000     -34.70010000     -72.83620000
C      -46.07230000     -34.31150000     -74.12320000
C      -47.03180000     -33.80080000     -72.10510000
H      -45.63810000     -34.75470000     -74.98230000
C      -47.32830000     -32.67030000     -72.83720000
C      -47.52310000     -33.65350000     -70.74040000
C      -48.31880000     -32.54190000     -70.58890000
S      -46.69830000     -32.69170000     -74.44370000
S      -48.38940000     -31.49530000     -72.09370000
H      -48.83410000     -32.28100000     -69.62750000
