40
Properties=species:S:1:pos:R:3 #=T CELL(abcABC):=T 1.889726e+02=T 90.00000=T Traj:=T positionsangstrom=T Step:=T 0=T Bead:=T pbc="F F F"
C      -42.69600000     -31.48600000     -69.23740000
C      -43.79900000     -31.75380000     -70.04400000
C      -43.71210000     -32.59950000     -71.16680000
C      -42.50930000     -33.35540000     -71.29740000
C      -41.35530000     -33.05480000     -70.54780000
C      -41.47540000     -32.04340000     -69.58500000
H      -42.78990000     -30.82440000     -68.39750000
H      -44.64630000     -32.78890000     -71.74850000
H      -40.47590000     -33.59160000     -70.79180000
H      -40.63660000     -31.86950000     -68.90600000
C      -42.44960000     -34.54420000     -72.33440000
H      -41.41130000     -34.59990000     -72.62350000
H      -43.00280000     -34.31160000     -73.28620000
C      -45.11870000     -31.17510000     -69.56040000
H      -44.91280000     -30.19520000     -69.16130000
H      -45.85120000     -31.01480000     -70.33840000
S      -42.88500000     -36.22600000     -71.60250000
S      -45.93590000     -32.14400000     -68.24760000
C      -44.40500000     -36.63600000     -72.55420000
H      -44.28500000     -36.30170000     -73.59110000
H      -44.58390000     -37.76660000     -72.60180000
C      -46.01850000     -33.82010000     -68.92970000
H      -45.89510000     -34.52330000     -68.01950000
H      -45.17060000     -34.14850000     -69.53420000
C      -47.45410000     -34.19390000     -69.48600000
H      -47.75370000     -35.28520000     -69.51390000
H      -48.17760000     -33.73800000     -68.74770000
C      -45.79060000     -35.96460000     -72.07710000
H      -45.72670000     -35.82640000     -71.05360000
H      -46.55780000     -36.74710000     -72.28260000
C      -46.14270000     -34.67650000     -72.65830000
C      -45.67770000     -34.23070000     -73.85050000
C      -47.09630000     -33.74940000     -72.08280000
H      -44.88030000     -34.73100000     -74.33840000
C      -47.39700000     -32.75610000     -72.98450000
C      -47.72230000     -33.56050000     -70.81660000
C      -48.53570000     -32.44170000     -70.77880000
S      -46.47120000     -32.82780000     -74.51070000
S      -48.55390000     -31.59100000     -72.37210000
H      -49.06950000     -32.12080000     -69.93920000
