40
Properties=species:S:1:pos:R:3 #=T CELL(abcABC):=T 1.889726e+02=T 90.00000=T Traj:=T positionsangstrom=T Step:=T 0=T Bead:=T pbc="F F F"
C      -42.61460000     -31.37590000     -69.39460000
C      -43.76960000     -31.90400000     -70.00350000
C      -43.58870000     -32.90950000     -71.03440000
C      -42.32390000     -33.42770000     -71.43350000
C      -41.20790000     -32.93310000     -70.71070000
C      -41.41260000     -31.97780000     -69.65680000
H      -42.74870000     -30.59260000     -68.59220000
H      -44.48940000     -33.28500000     -71.52450000
H      -40.20110000     -33.37920000     -70.88830000
H      -40.57290000     -31.63840000     -68.96730000
C      -42.34860000     -34.46840000     -72.40400000
H      -41.36120000     -34.73190000     -72.82940000
H      -43.07190000     -34.40020000     -73.21590000
C      -45.14740000     -31.41980000     -69.69080000
H      -45.19380000     -30.36700000     -69.47530000
H      -45.82960000     -31.59550000     -70.60480000
S      -42.85000000     -36.05080000     -71.55530000
S      -45.78890000     -32.35470000     -68.23580000
C      -44.44970000     -36.53360000     -72.28640000
H      -44.34810000     -36.70680000     -73.36730000
H      -44.56460000     -37.53910000     -71.80900000
C      -46.14890000     -34.00320000     -68.95610000
H      -46.03610000     -34.72870000     -68.16470000
H      -45.39650000     -34.02730000     -69.71710000
C      -47.59920000     -34.25120000     -69.58080000
H      -47.56040000     -35.31090000     -69.76410000
H      -48.30100000     -34.20940000     -68.82070000
C      -45.73260000     -35.82740000     -71.72790000
H      -45.57800000     -35.63960000     -70.67550000
H      -46.54830000     -36.59290000     -72.01640000
C      -46.16090000     -34.59680000     -72.53110000
C      -45.76790000     -34.29230000     -73.79370000
C      -47.11040000     -33.57470000     -72.08370000
H      -45.24980000     -34.84630000     -74.47640000
C      -47.35280000     -32.55770000     -72.98350000
C      -47.84390000     -33.39860000     -70.84230000
C      -48.75670000     -32.39590000     -70.94310000
S      -46.46120000     -32.76730000     -74.43040000
S      -48.73040000     -31.64780000     -72.47850000
H      -49.49980000     -32.09410000     -70.24160000
