40
Properties=species:S:1:pos:R:3 #=T CELL(abcABC):=T 1.889726e+02=T 90.00000=T Traj:=T positionsangstrom=T Step:=T 0=T Bead:=T pbc="F F F"
C      -43.98800000     -31.56050000     -74.25120000
C      -43.71410000     -32.09670000     -73.03260000
C      -44.70390000     -32.01320000     -71.98630000
C      -45.92120000     -31.30350000     -72.27920000
C      -46.19770000     -30.84520000     -73.57920000
C      -45.20550000     -30.95990000     -74.57390000
H      -43.21380000     -31.64860000     -75.00310000
H      -44.64080000     -32.56550000     -70.99590000
H      -47.13310000     -30.44960000     -73.88140000
H      -45.37510000     -30.54330000     -75.54500000
C      -46.99940000     -31.09850000     -71.21790000
H      -47.31310000     -30.01790000     -71.16600000
H      -46.60120000     -31.46040000     -70.18660000
C      -42.50710000     -32.92890000     -72.91280000
H      -41.53920000     -32.48510000     -73.40750000
H      -42.16920000     -33.04870000     -71.85170000
S      -48.60120000     -31.87890000     -71.60270000
S      -42.75610000     -34.61490000     -73.67680000
C      -47.94540000     -33.53780000     -72.24270000
H      -48.54180000     -33.89920000     -73.06730000
H      -47.00310000     -33.36390000     -72.77130000
C      -44.53690000     -34.92230000     -73.27530000
H      -44.88320000     -35.37720000     -74.19110000
H      -44.97910000     -33.96100000     -73.02940000
C      -44.66950000     -35.94370000     -72.11030000
H      -45.68990000     -36.37610000     -72.16090000
H      -44.05260000     -36.76900000     -72.36760000
C      -47.80620000     -34.66540000     -71.21930000
H      -47.51440000     -35.56610000     -71.78960000
H      -48.84510000     -34.79940000     -70.87790000
C      -46.93400000     -34.37780000     -70.06410000
C      -47.40470000     -33.82820000     -68.92870000
C      -45.49560000     -34.67050000     -69.94180000
H      -48.34400000     -33.34530000     -68.76980000
C      -44.94340000     -34.10680000     -68.77880000
C      -44.45510000     -35.27750000     -70.77200000
C      -43.21870000     -35.15880000     -70.18770000
S      -46.15340000     -33.35570000     -67.75490000
S      -43.15680000     -34.25840000     -68.60680000
H      -42.21910000     -35.46670000     -70.40600000
