40
Properties=species:S:1:pos:R:3 #=T CELL(abcABC):=T 1.889726e+02=T 90.00000=T Traj:=T positionsangstrom=T Step:=T 0=T Bead:=T pbc="F F F"
C      -44.43460000     -32.84010000     -67.61060000
C      -45.69390000     -32.38780000     -68.10170000
C      -45.65800000     -31.31110000     -68.97450000
C      -44.44250000     -30.68130000     -69.33650000
C      -43.24200000     -31.23840000     -68.93730000
C      -43.19830000     -32.29780000     -68.01880000
H      -44.34510000     -33.50320000     -66.77900000
H      -46.52600000     -30.98330000     -69.44720000
H      -42.32510000     -30.88860000     -69.36050000
H      -42.20200000     -32.63850000     -67.66650000
C      -44.57720000     -29.48160000     -70.11290000
H      -43.58300000     -28.95050000     -70.23840000
H      -45.09970000     -28.80730000     -69.35660000
C      -47.05310000     -33.07460000     -67.81180000
H      -47.28480000     -32.98290000     -66.73120000
H      -47.82760000     -32.51540000     -68.48920000
S      -45.48960000     -29.54100000     -71.64680000
S      -47.14430000     -34.89500000     -68.05860000
C      -44.80500000     -30.95340000     -72.61030000
H      -44.65340000     -30.60970000     -73.66280000
H      -43.76080000     -31.30750000     -72.35970000
C      -46.99570000     -34.96090000     -69.95040000
H      -47.48010000     -34.08430000     -70.44880000
H      -47.48500000     -35.77700000     -70.54890000
C      -45.47530000     -34.99690000     -70.46780000
H      -45.12230000     -33.99390000     -70.41300000
H      -44.99830000     -35.71540000     -69.77800000
C      -45.67660000     -32.16990000     -72.43540000
H      -46.71060000     -31.89200000     -72.53660000
H      -45.56410000     -32.58870000     -71.36550000
C      -45.30500000     -33.25790000     -73.40500000
C      -45.33450000     -33.07780000     -74.75770000
C      -45.11860000     -34.67820000     -73.10540000
H      -45.32570000     -32.07850000     -75.18740000
C      -44.85260000     -35.46610000     -74.26600000
C      -45.26180000     -35.46110000     -71.90820000
C      -45.14510000     -36.82420000     -72.17030000
S      -44.95070000     -34.51040000     -75.68550000
S      -44.86790000     -37.15660000     -73.87670000
H      -45.13350000     -37.64150000     -71.50150000
