40
Properties=species:S:1:pos:R:3 #=T CELL(abcABC):=T 1.889726e+02=T 90.00000=T Traj:=T positionsangstrom=T Step:=T 0=T Bead:=T pbc="F F F"
C      -42.58630000     -31.63470000     -69.16770000
C      -43.74020000     -31.63820000     -69.96070000
C      -43.80000000     -32.45090000     -71.06770000
C      -42.69280000     -33.31790000     -71.37940000
C      -41.65250000     -33.40390000     -70.44940000
C      -41.58170000     -32.60600000     -69.33930000
H      -42.46450000     -30.88800000     -68.35920000
H      -44.68870000     -32.44990000     -71.66390000
H      -40.88370000     -34.12400000     -70.68210000
H      -40.53500000     -32.58370000     -68.83000000
C      -42.71030000     -34.27150000     -72.55230000
H      -41.87170000     -34.09240000     -73.15890000
H      -43.55060000     -34.06760000     -73.23240000
C      -44.90960000     -30.85940000     -69.55900000
H      -44.57780000     -29.88610000     -69.06980000
H      -45.61400000     -30.69290000     -70.36910000
S      -42.60030000     -36.05620000     -71.96750000
S      -45.97150000     -31.55710000     -68.19370000
C      -44.36040000     -36.66480000     -71.75700000
H      -44.74120000     -37.08370000     -72.72910000
H      -44.27840000     -37.55160000     -71.04910000
C      -46.24610000     -33.33750000     -68.54760000
H      -46.38570000     -33.91210000     -67.61630000
H      -45.32960000     -33.74320000     -69.00800000
C      -47.50920000     -33.59600000     -69.40180000
H      -47.66180000     -34.66820000     -69.31980000
H      -48.38930000     -33.07200000     -68.87200000
C      -45.31780000     -35.63080000     -71.16590000
H      -44.88880000     -34.91140000     -70.50700000
H      -46.05680000     -36.12460000     -70.41420000
C      -46.12480000     -34.84870000     -72.25140000
C      -45.97540000     -35.03910000     -73.61760000
C      -46.99680000     -33.73000000     -72.04060000
H      -45.34790000     -35.84170000     -74.07020000
C      -47.40980000     -33.15110000     -73.25220000
C      -47.54940000     -33.06300000     -70.85220000
C      -48.42050000     -32.03180000     -71.25290000
S      -46.77920000     -33.89500000     -74.66610000
S      -48.39660000     -31.67030000     -72.96270000
H      -48.96870000     -31.41910000     -70.62020000
