40
Properties=species:S:1:pos:R:3 #=T CELL(abcABC):=T 1.889726e+02=T 90.00000=T Traj:=T positionsangstrom=T Step:=T 0=T Bead:=T pbc="F F F"
C      -43.67360000     -36.33100000     -69.37790000
C      -43.10290000     -35.04210000     -69.38470000
C      -42.61930000     -34.52470000     -70.59650000
C      -42.58330000     -35.25700000     -71.75230000
C      -43.18370000     -36.62100000     -71.74050000
C      -43.69420000     -37.12130000     -70.54980000
H      -43.89230000     -36.86520000     -68.42320000
H      -42.19110000     -33.50590000     -70.59770000
H      -43.21170000     -37.14680000     -72.74990000
H      -44.21760000     -38.11520000     -70.56850000
C      -42.09790000     -34.61450000     -73.03740000
H      -41.43090000     -35.30700000     -73.64610000
H      -41.51040000     -33.78480000     -72.82880000
C      -42.84250000     -34.18330000     -68.20640000
H      -43.30610000     -34.63640000     -67.29280000
H      -41.75640000     -34.06600000     -67.89220000
S      -43.47860000     -34.18430000     -74.26900000
S      -43.41740000     -32.45120000     -68.47110000
C      -43.67660000     -32.53050000     -73.51370000
H      -42.74980000     -32.08360000     -73.20600000
H      -44.09420000     -31.93880000     -74.30350000
C      -45.18470000     -32.83780000     -68.85460000
H      -45.67910000     -33.36980000     -68.02330000
H      -45.05010000     -33.53070000     -69.72470000
C      -45.92810000     -31.62310000     -69.26510000
H      -46.33810000     -31.05740000     -68.38300000
H      -45.23960000     -30.95880000     -69.70620000
C      -44.66700000     -32.42440000     -72.35830000
H      -44.53170000     -31.43470000     -71.88210000
H      -44.38760000     -33.18730000     -71.56670000
C      -46.14320000     -32.58610000     -72.54030000
C      -46.77180000     -32.84050000     -73.77220000
C      -47.13500000     -32.27950000     -71.53000000
H      -46.26350000     -32.99730000     -74.68970000
C      -48.40480000     -32.28250000     -72.04220000
C      -47.11230000     -31.88400000     -70.12980000
C      -48.36510000     -31.61580000     -69.70070000
S      -48.46870000     -32.68410000     -73.71530000
S      -49.65060000     -31.92700000     -70.91190000
H      -48.62540000     -31.14950000     -68.74370000
