40
Properties=species:S:1:pos:R:3 #=T CELL(abcABC):=T 1.889726e+02=T 90.00000=T Traj:=T positionsangstrom=T Step:=T 0=T Bead:=T pbc="F F F"
C      -43.99150000     -30.02010000     -72.83620000
C      -43.26050000     -30.51780000     -71.74820000
C      -43.82700000     -30.56550000     -70.47380000
C      -45.11910000     -30.09430000     -70.28010000
C      -45.86600000     -29.63120000     -71.36920000
C      -45.30390000     -29.53820000     -72.61790000
H      -43.38290000     -30.03520000     -73.74860000
H      -43.21740000     -30.90760000     -69.62540000
H      -46.94390000     -29.43400000     -71.19580000
H      -45.89280000     -29.35740000     -73.52820000
C      -45.73170000     -30.07550000     -68.82450000
H      -46.17520000     -29.12910000     -68.55750000
H      -44.84140000     -30.23300000     -68.19510000
C      -41.83390000     -31.04150000     -72.05090000
H      -41.72440000     -31.32090000     -73.10990000
H      -41.03150000     -30.28720000     -71.89230000
S      -47.13500000     -31.23070000     -68.58250000
S      -41.39470000     -32.72390000     -71.29300000
C      -46.99430000     -32.40240000     -70.14750000
H      -47.98120000     -32.38510000     -70.73310000
H      -46.09820000     -32.00640000     -70.74960000
C      -42.56590000     -33.83670000     -72.11490000
H      -42.02290000     -34.77930000     -72.28560000
H      -42.80980000     -33.57250000     -73.20960000
C      -43.87750000     -34.27550000     -71.35050000
H      -43.50680000     -34.63070000     -70.38860000
H      -44.50600000     -33.48000000     -71.21570000
C      -46.72450000     -33.85290000     -69.61360000
H      -47.40130000     -34.05250000     -68.74330000
H      -45.63350000     -33.86810000     -69.27570000
C      -47.08450000     -34.97000000     -70.60550000
C      -48.24880000     -35.62790000     -70.55400000
C      -46.18320000     -35.53760000     -71.61000000
H      -49.14170000     -35.41900000     -70.03930000
C      -46.68390000     -36.63630000     -72.22410000
C      -44.83630000     -35.31010000     -72.02840000
C      -44.50690000     -36.07570000     -73.12510000
S      -48.36680000     -36.91230000     -71.83740000
S      -45.72000000     -37.35220000     -73.51440000
H      -43.49370000     -36.10920000     -73.58700000
