40
Properties=species:S:1:pos:R:3 #=T CELL(abcABC):=T 1.889726e+02=T 90.00000=T Traj:=T positionsangstrom=T Step:=T 0=T Bead:=T pbc="F F F"
C      -44.07790000     -29.75370000     -72.84150000
C      -43.32650000     -30.52260000     -71.90570000
C      -43.88830000     -30.67120000     -70.59730000
C      -45.10170000     -30.16280000     -70.22750000
C      -45.84150000     -29.44970000     -71.15480000
C      -45.35460000     -29.26500000     -72.44440000
H      -43.71100000     -29.47380000     -73.79690000
H      -43.32380000     -31.18720000     -69.86100000
H      -46.89020000     -29.21420000     -70.98010000
H      -45.75750000     -28.63710000     -73.26120000
C      -45.63840000     -30.30120000     -68.85000000
H      -45.92060000     -29.28160000     -68.45770000
H      -44.97770000     -30.69580000     -68.07760000
C      -42.03770000     -31.15690000     -72.33280000
H      -42.22210000     -31.42480000     -73.33990000
H      -41.22120000     -30.36120000     -72.43160000
S      -47.19340000     -31.31500000     -68.79950000
S      -41.55530000     -32.55090000     -71.29780000
C      -46.91420000     -32.65410000     -70.00000000
H      -47.75330000     -32.65200000     -70.76890000
H      -45.97580000     -32.44610000     -70.57390000
C      -42.66290000     -33.80360000     -72.02640000
H      -42.02850000     -34.71090000     -72.30990000
H      -42.92970000     -33.45680000     -73.02240000
C      -43.93710000     -34.16590000     -71.26240000
H      -43.62630000     -34.57730000     -70.35480000
H      -44.50870000     -33.26400000     -70.98380000
C      -46.88560000     -34.01110000     -69.42790000
H      -47.56710000     -34.18820000     -68.61710000
H      -45.88940000     -34.22330000     -68.92750000
C      -47.06980000     -35.09430000     -70.56040000
C      -48.24190000     -35.77200000     -70.62530000
C      -46.07520000     -35.59750000     -71.48140000
H      -49.14100000     -35.57010000     -69.95360000
C      -46.58400000     -36.65570000     -72.25040000
C      -44.78400000     -35.21010000     -71.94960000
C      -44.40680000     -36.04230000     -73.04470000
S      -48.25910000     -36.91800000     -71.93680000
S      -45.50560000     -37.31670000     -73.44410000
H      -43.39830000     -36.06940000     -73.43710000
