40
Properties=species:S:1:pos:R:3 #=T CELL(abcABC):=T 1.889726e+02=T 90.00000=T Traj:=T positionsangstrom=T Step:=T 0=T Bead:=T pbc="F F F"
C      -44.05920000     -29.32310000     -72.41760000
C      -43.46650000     -30.40560000     -71.78240000
C      -44.03460000     -30.89860000     -70.55070000
C      -45.24320000     -30.36670000     -70.15910000
C      -45.95410000     -29.49750000     -70.97200000
C      -45.30000000     -28.93830000     -72.07270000
H      -43.54060000     -28.95530000     -73.23630000
H      -43.53800000     -31.57830000     -69.85930000
H      -46.89990000     -29.12830000     -70.70510000
H      -45.67970000     -27.98760000     -72.53950000
C      -45.82120000     -30.76450000     -68.76270000
H      -45.91110000     -29.83790000     -68.07890000
H      -45.06240000     -31.41400000     -68.23590000
C      -42.15060000     -30.96600000     -72.36860000
H      -42.25390000     -31.18720000     -73.36910000
H      -41.34440000     -30.22080000     -72.22890000
S      -47.54490000     -31.39560000     -68.70050000
S      -41.42090000     -32.41490000     -71.44070000
C      -47.60130000     -32.75030000     -69.94780000
H      -48.65820000     -33.06780000     -69.94070000
H      -47.45290000     -32.36170000     -70.93630000
C      -42.47720000     -33.94410000     -71.89980000
H      -42.07740000     -34.67040000     -71.18500000
H      -42.08840000     -34.20720000     -72.84330000
C      -43.98520000     -33.85840000     -71.89680000
H      -44.41530000     -33.49690000     -70.98250000
H      -44.24890000     -33.09120000     -72.62530000
C      -46.63700000     -33.86840000     -69.71530000
H      -46.80000000     -34.26310000     -68.73140000
H      -45.59010000     -33.54440000     -69.76620000
C      -46.82590000     -35.03060000     -70.61840000
C      -47.94670000     -35.79130000     -70.49470000
C      -45.97460000     -35.52980000     -71.73840000
H      -48.77850000     -35.62940000     -69.81230000
C      -46.44970000     -36.72230000     -72.29360000
C      -44.69110000     -35.13320000     -72.34100000
C      -44.29680000     -36.01950000     -73.28850000
S      -47.99140000     -37.16940000     -71.65310000
S      -45.49910000     -37.32340000     -73.57060000
H      -43.27980000     -36.08600000     -73.65860000
