40
Properties=species:S:1:pos:R:3 #=T CELL(abcABC):=T 1.889726e+02=T 90.00000=T Traj:=T positionsangstrom=T Step:=T 0=T Bead:=T pbc="F F F"
C      -44.09570000     -30.00730000     -72.91340000
C      -43.25360000     -30.47030000     -71.86490000
C      -43.81890000     -30.50630000     -70.55810000
C      -45.10140000     -29.99850000     -70.29780000
C      -45.84140000     -29.42080000     -71.30780000
C      -45.33780000     -29.33580000     -72.62250000
H      -43.81290000     -30.04320000     -73.98580000
H      -43.22330000     -31.08910000     -69.83340000
H      -46.63880000     -28.82590000     -71.02240000
H      -45.84390000     -28.93390000     -73.48120000
C      -45.63530000     -30.17340000     -68.88210000
H      -46.01940000     -29.21060000     -68.49090000
H      -44.74830000     -30.44760000     -68.25250000
C      -41.86930000     -30.98630000     -72.08110000
H      -41.47040000     -31.03040000     -73.10980000
H      -41.27310000     -30.38400000     -71.43420000
S      -47.06620000     -31.33930000     -68.72480000
S      -41.58390000     -32.66860000     -71.29670000
C      -47.10470000     -32.64060000     -70.03670000
H      -48.07650000     -32.52330000     -70.34310000
H      -46.48630000     -32.32580000     -70.84390000
C      -42.64070000     -33.96800000     -72.19290000
H      -41.95660000     -34.83500000     -72.19530000
H      -42.79420000     -33.56570000     -73.14930000
C      -43.90610000     -34.19350000     -71.32690000
H      -43.65750000     -34.35650000     -70.25910000
H      -44.45810000     -33.17510000     -71.19360000
C      -46.77380000     -34.02700000     -69.51540000
H      -47.41380000     -34.17320000     -68.59310000
H      -45.76540000     -34.07890000     -69.27890000
C      -47.14490000     -35.07300000     -70.54200000
C      -48.30000000     -35.72500000     -70.59780000
C      -46.17590000     -35.54370000     -71.57850000
H      -49.19220000     -35.60800000     -69.91410000
C      -46.71320000     -36.58560000     -72.35200000
C      -44.76690000     -35.31060000     -71.82910000
C      -44.28280000     -36.21660000     -72.77400000
S      -48.37120000     -36.93990000     -71.84140000
S      -45.53940000     -37.21590000     -73.52670000
H      -43.28160000     -36.09760000     -73.12800000
