40
Properties=species:S:1:pos:R:3 #=T CELL(abcABC):=T 1.889726e+02=T 90.00000=T Traj:=T positionsangstrom=T Step:=T 0=T Bead:=T pbc="F F F"
C      -44.10150000     -29.47850000     -72.50600000
C      -43.49300000     -30.46720000     -71.70120000
C      -43.99720000     -30.66380000     -70.39000000
C      -45.22230000     -30.18180000     -69.91050000
C      -45.88870000     -29.30790000     -70.78280000
C      -45.32840000     -28.95570000     -72.02430000
H      -43.78740000     -29.09680000     -73.48750000
H      -43.52450000     -31.35240000     -69.73740000
H      -46.91280000     -28.94780000     -70.51060000
H      -45.89920000     -28.49160000     -72.81780000
C      -45.77620000     -30.64670000     -68.60730000
H      -45.89120000     -29.86040000     -67.94010000
H      -45.18910000     -31.40710000     -68.13650000
C      -42.21200000     -31.10810000     -72.17180000
H      -42.23840000     -31.25530000     -73.28380000
H      -41.38610000     -30.39810000     -72.01220000
S      -47.54730000     -31.33070000     -68.71780000
S      -41.63590000     -32.65770000     -71.35390000
C      -47.64550000     -32.74460000     -69.97230000
H      -48.67640000     -33.19190000     -69.80370000
H      -47.48540000     -32.24010000     -70.95160000
C      -42.51380000     -33.93510000     -72.37470000
H      -42.22940000     -34.91390000     -71.95920000
H      -42.27900000     -33.99820000     -73.50250000
C      -44.03450000     -33.73650000     -72.26680000
H      -44.20630000     -33.23090000     -71.26260000
H      -44.32250000     -33.00440000     -73.04870000
C      -46.62150000     -33.85640000     -69.78360000
H      -46.58420000     -34.14320000     -68.73550000
H      -45.63680000     -33.40070000     -70.02710000
C      -46.83960000     -35.00620000     -70.74960000
C      -47.81470000     -35.92600000     -70.47890000
C      -46.01290000     -35.42080000     -71.83820000
H      -48.55710000     -35.91590000     -69.63820000
C      -46.37980000     -36.69950000     -72.29860000
C      -44.85810000     -35.00300000     -72.50440000
C      -44.31500000     -35.85680000     -73.41770000
S      -47.92100000     -37.30430000     -71.52560000
S      -45.27470000     -37.32170000     -73.52250000
H      -43.60870000     -35.67250000     -74.21800000
