40
Properties=species:S:1:pos:R:3 #=T CELL(abcABC):=T 1.889726e+02=T 90.00000=T Traj:=T positionsangstrom=T Step:=T 0=T Bead:=T pbc="F F F"
C      -43.73520000     -29.99120000     -72.90930000
C      -43.09600000     -30.80670000     -71.98480000
C      -43.68650000     -30.99500000     -70.74050000
C      -44.91540000     -30.39120000     -70.37550000
C      -45.57200000     -29.65420000     -71.36740000
C      -44.95700000     -29.41210000     -72.63630000
H      -43.37490000     -29.81490000     -73.87040000
H      -43.17780000     -31.60820000     -69.99610000
H      -46.67140000     -29.35080000     -71.23150000
H      -45.54380000     -28.76480000     -73.36640000
C      -45.43380000     -30.56080000     -68.96800000
H      -45.37640000     -29.63800000     -68.37320000
H      -44.79890000     -31.31540000     -68.47830000
C      -41.64840000     -31.34180000     -72.28120000
H      -41.55080000     -31.46520000     -73.35020000
H      -40.78520000     -30.74090000     -71.98720000
S      -47.28060000     -30.88520000     -68.81950000
S      -41.25020000     -32.93600000     -71.41940000
C      -47.48890000     -32.56260000     -69.70140000
H      -48.58700000     -32.84610000     -69.49980000
H      -47.33010000     -32.43710000     -70.82910000
C      -42.62830000     -34.09880000     -72.19110000
H      -42.04230000     -35.02230000     -72.39430000
H      -42.89860000     -33.66620000     -73.17450000
C      -43.91240000     -34.17760000     -71.44620000
H      -43.77610000     -34.46310000     -70.46150000
H      -44.28870000     -33.18750000     -71.36520000
C      -46.72790000     -33.82080000     -69.25320000
H      -47.18790000     -34.17810000     -68.33740000
H      -45.64360000     -33.57910000     -69.13500000
C      -47.01420000     -35.01380000     -70.30270000
C      -48.22780000     -35.56620000     -70.31650000
C      -46.22670000     -35.44790000     -71.45950000
H      -48.97750000     -35.36460000     -69.55210000
C      -46.85790000     -36.40320000     -72.16890000
C      -44.96040000     -35.09910000     -72.10370000
C      -44.68680000     -35.88180000     -73.24990000
S      -48.44250000     -36.84290000     -71.47360000
S      -45.96420000     -37.03010000     -73.58250000
H      -43.87860000     -35.77550000     -73.93950000
