40
Properties=species:S:1:pos:R:3 #=T CELL(abcABC):=T 1.889726e+02=T 90.00000=T Traj:=T positionsangstrom=T Step:=T 0=T Bead:=T pbc="F F F"
C      -43.85170000     -30.24970000     -72.93770000
C      -43.03840000     -30.75020000     -71.91910000
C      -43.54970000     -30.77590000     -70.63870000
C      -44.89070000     -30.33070000     -70.33330000
C      -45.63420000     -29.80130000     -71.37620000
C      -45.14590000     -29.86770000     -72.68740000
H      -43.39590000     -30.28870000     -73.95520000
H      -43.01950000     -31.22830000     -69.82480000
H      -46.76060000     -29.62790000     -71.26150000
H      -45.84950000     -29.60950000     -73.45060000
C      -45.36170000     -30.38780000     -68.88190000
H      -45.22030000     -29.37590000     -68.46790000
H      -44.69670000     -31.00000000     -68.30300000
C      -41.64460000     -31.33530000     -72.14510000
H      -41.47400000     -31.39670000     -73.21130000
H      -40.95260000     -30.57910000     -71.87090000
S      -47.05060000     -31.04130000     -68.85480000
S      -41.38630000     -32.94350000     -71.34650000
C      -46.92590000     -32.38360000     -70.08890000
H      -47.88580000     -32.43190000     -70.61680000
H      -46.25050000     -31.95710000     -70.81310000
C      -42.68360000     -33.97890000     -72.21170000
H      -42.37130000     -35.01970000     -72.26860000
H      -42.82150000     -33.48290000     -73.17580000
C      -43.99700000     -34.01720000     -71.49060000
H      -43.78160000     -34.50870000     -70.55570000
H      -44.52450000     -33.05680000     -71.34690000
C      -46.57030000     -33.78010000     -69.42360000
H      -47.04280000     -33.77020000     -68.40310000
H      -45.47040000     -33.95360000     -69.27450000
C      -47.01040000     -34.91420000     -70.34710000
C      -48.19480000     -35.58200000     -70.18850000
C      -46.26280000     -35.36710000     -71.48350000
H      -48.95720000     -35.44650000     -69.46580000
C      -47.02880000     -36.38660000     -72.19310000
C      -45.03350000     -35.05920000     -72.10830000
C      -44.84720000     -35.83600000     -73.25610000
S      -48.48680000     -36.83030000     -71.45530000
S      -46.10130000     -37.04940000     -73.52270000
H      -43.86760000     -36.09040000     -73.72010000
