40
Properties=species:S:1:pos:R:3 #=T CELL(abcABC):=T 1.889726e+02=T 90.00000=T Traj:=T positionsangstrom=T Step:=T 0=T Bead:=T pbc="F F F"
C      -43.76020000     -30.12960000     -72.96400000
C      -43.00920000     -30.69140000     -71.96970000
C      -43.60620000     -30.81460000     -70.67750000
C      -44.85640000     -30.33380000     -70.37310000
C      -45.61230000     -29.72000000     -71.43940000
C      -45.02960000     -29.57710000     -72.72340000
H      -43.36810000     -29.91770000     -73.90620000
H      -42.95450000     -31.15710000     -69.84330000
H      -46.56130000     -29.08830000     -71.16550000
H      -45.66410000     -29.13030000     -73.50070000
C      -45.37380000     -30.55570000     -68.98850000
H      -45.42450000     -29.66950000     -68.32180000
H      -44.73910000     -31.33250000     -68.52590000
C      -41.67620000     -31.29700000     -72.27350000
H      -41.55760000     -31.31600000     -73.37390000
H      -40.79880000     -30.73990000     -71.84970000
S      -47.15470000     -31.09230000     -68.80510000
S      -41.43170000     -32.94520000     -71.42250000
C      -47.38490000     -32.50130000     -70.03570000
H      -48.44600000     -32.73050000     -70.13300000
H      -46.96960000     -32.24720000     -70.94260000
C      -42.58110000     -34.15970000     -72.21530000
H      -42.09300000     -35.16510000     -72.12400000
H      -42.58940000     -34.02270000     -73.29440000
C      -43.93650000     -34.12800000     -71.56140000
H      -43.77780000     -34.27630000     -70.47190000
H      -44.31350000     -33.05930000     -71.64490000
C      -46.59290000     -33.76610000     -69.42990000
H      -46.82020000     -33.86740000     -68.35180000
H      -45.55280000     -33.61200000     -69.47660000
C      -46.96560000     -35.00530000     -70.19940000
C      -48.20520000     -35.55370000     -70.17490000
C      -46.22490000     -35.44490000     -71.38650000
H      -48.95350000     -35.24080000     -69.49340000
C      -46.95490000     -36.40050000     -72.12860000
C      -44.89940000     -35.15030000     -71.96130000
C      -44.68210000     -35.87590000     -73.10350000
S      -48.49160000     -36.80890000     -71.42150000
S      -46.06750000     -36.91700000     -73.56690000
H      -43.73600000     -35.87380000     -73.64850000
