40
Properties=species:S:1:pos:R:3 #=T CELL(abcABC):=T 1.889726e+02=T 90.00000=T Traj:=T positionsangstrom=T Step:=T 0=T Bead:=T pbc="F F F"
C      -42.27710000     -31.57540000     -69.15760000
C      -42.87630000     -32.82870000     -68.80660000
C      -42.71930000     -33.89510000     -69.72800000
C      -41.98590000     -33.80680000     -70.89170000
C      -41.35870000     -32.61260000     -71.24400000
C      -41.52510000     -31.48540000     -70.35950000
H      -42.27910000     -30.79030000     -68.43170000
H      -42.97440000     -34.94230000     -69.50560000
H      -40.68270000     -32.48050000     -72.07740000
H      -41.23250000     -30.54190000     -70.62600000
C      -41.80450000     -35.02970000     -71.69700000
H      -42.53410000     -35.74020000     -71.31770000
H      -40.88190000     -35.59770000     -71.60640000
C      -43.55620000     -33.12270000     -67.54690000
H      -43.61760000     -34.18290000     -67.45270000
H      -43.00710000     -32.89850000     -66.71870000
S      -42.16750000     -34.72230000     -73.44220000
S      -45.21280000     -32.28800000     -67.45230000
C      -43.97940000     -34.94730000     -73.60830000
H      -44.17180000     -34.50300000     -74.64090000
H      -44.18910000     -35.99970000     -73.85550000
C      -46.30110000     -33.19610000     -68.68440000
H      -47.32490000     -33.18500000     -68.24030000
H      -45.86190000     -34.17980000     -68.71340000
C      -46.33180000     -32.41900000     -70.03670000
H      -46.32630000     -31.36920000     -69.74210000
H      -45.43530000     -32.61160000     -70.55840000
C      -44.87480000     -34.28440000     -72.52630000
H      -44.38590000     -33.38800000     -72.11440000
H      -44.92780000     -34.90800000     -71.67460000
C      -46.24220000     -33.95770000     -73.02210000
C      -46.80250000     -34.40070000     -74.21480000
C      -47.36110000     -33.42440000     -72.24920000
H      -46.35540000     -34.95600000     -75.12220000
C      -48.59290000     -33.43030000     -72.91970000
C      -47.50020000     -32.71260000     -71.00480000
C      -48.82500000     -32.35300000     -70.66310000
S      -48.53840000     -34.20790000     -74.48230000
S      -49.91990000     -32.73330000     -72.04790000
H      -49.16680000     -31.62350000     -69.91010000
