40
Properties=species:S:1:pos:R:3 #=T CELL(abcABC):=T 1.889726e+02=T 90.00000=T Traj:=T positionsangstrom=T Step:=T 0=T Bead:=T pbc="F F F"
C      -42.18480000     -31.64410000     -69.00720000
C      -42.88680000     -32.82280000     -68.65980000
C      -42.82470000     -33.95220000     -69.53220000
C      -42.13390000     -33.87050000     -70.72990000
C      -41.41100000     -32.71730000     -71.05100000
C      -41.43640000     -31.56310000     -70.24630000
H      -42.25750000     -30.79290000     -68.40100000
H      -43.37010000     -34.84680000     -69.22780000
H      -40.82410000     -32.79370000     -71.99790000
H      -40.68880000     -30.79780000     -70.34480000
C      -41.94760000     -35.08860000     -71.67140000
H      -42.60970000     -35.97600000     -71.52610000
H      -40.87310000     -35.26160000     -71.76600000
C      -43.71730000     -32.83960000     -67.29630000
H      -43.74220000     -33.95780000     -66.96450000
H      -43.25890000     -32.20840000     -66.51660000
S      -42.17380000     -34.58530000     -73.54000000
S      -45.38030000     -32.04950000     -67.34600000
C      -43.96650000     -34.89240000     -73.85610000
H      -44.18900000     -34.84240000     -74.89070000
H      -44.14370000     -35.86670000     -73.39170000
C      -46.50400000     -33.06070000     -68.47380000
H      -47.55060000     -32.75670000     -68.33830000
H      -46.42920000     -34.11940000     -68.23830000
C      -46.14270000     -32.85670000     -69.99050000
H      -45.61350000     -31.93040000     -70.27990000
H      -45.39030000     -33.68730000     -70.18450000
C      -44.77570000     -33.82200000     -73.01780000
H      -44.52460000     -32.76190000     -73.40460000
H      -44.47880000     -33.83540000     -71.96400000
C      -46.23290000     -33.97200000     -73.21020000
C      -46.74730000     -34.56060000     -74.33480000
C      -47.31170000     -33.59270000     -72.33330000
H      -46.22780000     -34.99990000     -75.20570000
C      -48.57870000     -33.53820000     -72.99580000
C      -47.37040000     -33.00730000     -71.00860000
C      -48.67930000     -32.69730000     -70.66140000
S      -48.50910000     -34.19120000     -74.63320000
S      -49.80360000     -32.74790000     -72.00920000
H      -49.02740000     -32.36060000     -69.74480000
