40
Properties=species:S:1:pos:R:3 #=T CELL(abcABC):=T 1.889726e+02=T 90.00000=T Traj:=T positionsangstrom=T Step:=T 0=T Bead:=T pbc="F F F"
C      -46.86370000     -36.79890000     -69.98720000
C      -47.35230000     -36.10950000     -71.11870000
C      -46.45820000     -35.87670000     -72.21020000
C      -45.19840000     -36.48890000     -72.27550000
C      -44.76350000     -37.16160000     -71.16430000
C      -45.56780000     -37.38380000     -70.04300000
H      -47.46060000     -36.93760000     -69.11150000
H      -46.81960000     -35.39040000     -73.11030000
H      -43.73410000     -37.52260000     -71.00450000
H      -45.20940000     -37.95490000     -69.13500000
C      -44.25350000     -36.32380000     -73.44560000
H      -44.57070000     -35.57080000     -74.13180000
H      -44.13620000     -37.29860000     -73.93890000
C      -48.70800000     -35.52310000     -71.13150000
H      -49.34450000     -36.29980000     -71.54370000
H      -49.11850000     -35.29820000     -70.14390000
S      -42.50480000     -35.78600000     -73.05360000
S      -49.08000000     -33.95900000     -72.21090000
C      -42.76770000     -34.05110000     -72.84270000
H      -41.76030000     -33.64400000     -72.85730000
H      -43.16570000     -33.54810000     -73.76270000
C      -48.22120000     -32.42580000     -71.44090000
H      -48.94490000     -32.01500000     -70.62180000
H      -48.11370000     -31.71220000     -72.22370000
C      -46.95100000     -32.85410000     -70.70850000
H      -47.26670000     -33.31190000     -69.79270000
H      -46.38700000     -33.70820000     -71.15330000
C      -43.75570000     -33.60660000     -71.68800000
H      -43.49170000     -34.24250000     -70.83170000
H      -44.71680000     -33.83410000     -72.04520000
C      -43.65630000     -32.19600000     -71.26090000
C      -42.52260000     -31.44910000     -71.36280000
C      -44.69970000     -31.46380000     -70.61180000
H      -41.62400000     -31.72560000     -71.84770000
C      -44.30510000     -30.12100000     -70.39050000
C      -46.06280000     -31.64400000     -70.36000000
C      -46.66520000     -30.56690000     -69.79920000
S      -42.63940000     -29.77410000     -70.85630000
S      -45.53920000     -29.20460000     -69.55190000
H      -47.62290000     -30.49710000     -69.30910000
