40
Properties=species:S:1:pos:R:3 #=T CELL(abcABC):=T 1.889726e+02=T 90.00000=T Traj:=T positionsangstrom=T Step:=T 0=T Bead:=T pbc="F F F"
C      -44.59250000     -31.25560000     -74.65510000
C      -44.23730000     -31.91500000     -73.48050000
C      -45.15230000     -32.00510000     -72.41310000
C      -46.30080000     -31.22290000     -72.44330000
C      -46.59130000     -30.41860000     -73.58060000
C      -45.76330000     -30.52600000     -74.67940000
H      -43.96250000     -31.29570000     -75.48140000
H      -44.86760000     -32.60130000     -71.48370000
H      -47.43480000     -29.77820000     -73.63200000
H      -46.10740000     -30.02620000     -75.56340000
C      -47.30970000     -31.34890000     -71.29210000
H      -47.69060000     -30.40330000     -70.94010000
H      -46.85930000     -31.88580000     -70.40640000
C      -42.89840000     -32.56830000     -73.42420000
H      -42.26950000     -32.18200000     -74.25150000
H      -42.34130000     -32.28710000     -72.53010000
S      -48.79010000     -32.44310000     -71.71470000
S      -42.84040000     -34.40760000     -73.68910000
C      -47.84150000     -34.13090000     -72.05580000
H      -48.50270000     -34.69630000     -72.71820000
H      -46.86860000     -33.83170000     -72.49420000
C      -44.40220000     -35.29710000     -73.17510000
H      -44.53920000     -35.97020000     -74.03360000
H      -45.19640000     -34.55280000     -73.22570000
C      -44.16420000     -36.01610000     -71.86510000
H      -44.98400000     -36.75770000     -71.77580000
H      -43.20560000     -36.51130000     -72.05630000
C      -47.56730000     -35.12020000     -70.89430000
H      -47.16460000     -36.08520000     -71.33490000
H      -48.56270000     -35.39370000     -70.50230000
C      -46.63530000     -34.57350000     -69.78680000
C      -47.15710000     -33.96910000     -68.68590000
C      -45.18230000     -34.59110000     -69.78990000
H      -48.16920000     -34.05530000     -68.46700000
C      -44.62910000     -33.97450000     -68.66410000
C      -44.08910000     -35.14220000     -70.59380000
C      -42.85850000     -34.97670000     -70.04160000
S      -45.87350000     -33.24010000     -67.68140000
S      -42.87270000     -34.03100000     -68.49490000
H      -41.93700000     -35.28980000     -70.52960000
