40
Properties=species:S:1:pos:R:3 #=T CELL(abcABC):=T 1.889726e+02=T 90.00000=T Traj:=T positionsangstrom=T Step:=T 0=T Bead:=T pbc="F F F"
C      -48.00600000     -36.05480000     -72.26530000
C      -46.78200000     -35.61520000     -71.86860000
C      -46.66650000     -34.57970000     -70.90220000
C      -47.77160000     -33.96590000     -70.39900000
C      -49.09190000     -34.45540000     -70.79160000
C      -49.15320000     -35.48490000     -71.68390000
H      -48.11430000     -36.94710000     -72.87500000
H      -45.66220000     -34.26310000     -70.59260000
H      -50.10520000     -34.03100000     -70.51080000
H      -50.20270000     -35.91150000     -71.81650000
C      -47.70460000     -32.87390000     -69.36910000
H      -46.73920000     -32.87500000     -68.89680000
H      -48.42220000     -33.05460000     -68.60430000
C      -45.53170000     -36.25110000     -72.23390000
H      -44.71980000     -35.96640000     -71.52480000
H      -45.57950000     -37.31000000     -72.30110000
S      -48.06780000     -31.20250000     -70.12760000
S      -44.88580000     -35.63600000     -73.90470000
C      -47.06880000     -31.19630000     -71.66610000
H      -47.04550000     -32.23430000     -72.10490000
H      -47.61180000     -30.63150000     -72.43280000
C      -45.19140000     -33.83380000     -74.10180000
H      -46.12320000     -33.52870000     -73.55350000
H      -45.37810000     -33.80200000     -75.16200000
C      -43.94820000     -32.79930000     -73.82570000
H      -43.19590000     -32.84380000     -74.65530000
H      -44.44850000     -31.81880000     -73.78800000
C      -45.51870000     -30.78040000     -71.58150000
H      -45.40180000     -29.73500000     -71.30120000
H      -45.09070000     -30.78640000     -72.61580000
C      -44.74720000     -31.67680000     -70.71440000
C      -44.67080000     -31.51330000     -69.32410000
C      -43.76610000     -32.50020000     -71.25310000
H      -45.35620000     -30.88560000     -68.79730000
C      -42.91620000     -32.92460000     -70.21250000
C      -43.23240000     -32.87580000     -72.53370000
C      -42.00030000     -33.47720000     -72.43190000
S      -43.31160000     -32.38750000     -68.63630000
S      -41.40220000     -33.56920000     -70.75270000
H      -41.45670000     -33.81690000     -73.29610000
