40
Properties=species:S:1:pos:R:3 #=T CELL(abcABC):=T 1.889726e+02=T 90.00000=T Traj:=T positionsangstrom=T Step:=T 0=T Bead:=T pbc="F F F"
C      -48.27290000     -35.62650000     -72.41530000
C      -47.05080000     -35.24730000     -71.81580000
C      -47.10400000     -34.28820000     -70.80170000
C      -48.25760000     -33.53890000     -70.58030000
C      -49.47490000     -33.88880000     -71.24550000
C      -49.48850000     -35.06050000     -72.04980000
H      -48.33820000     -36.46200000     -73.16910000
H      -46.17450000     -34.03180000     -70.23850000
H      -50.36440000     -33.25140000     -71.21560000
H      -50.43510000     -35.35310000     -72.55920000
C      -48.37460000     -32.49430000     -69.45810000
H      -48.23070000     -32.99870000     -68.50050000
H      -49.33730000     -32.01830000     -69.41750000
C      -45.79130000     -35.91900000     -72.22750000
H      -44.98860000     -35.46670000     -71.68040000
H      -45.77130000     -37.04350000     -72.01420000
S      -47.09130000     -31.14220000     -69.47610000
S      -45.35970000     -35.66600000     -74.05430000
C      -46.67520000     -30.73280000     -71.20870000
H      -46.96190000     -31.60380000     -71.96400000
H      -47.22900000     -29.79670000     -71.51210000
C      -45.51020000     -33.79200000     -74.16040000
H      -46.29460000     -33.54320000     -73.43720000
H      -45.82860000     -33.56320000     -75.22450000
C      -44.26040000     -33.04380000     -73.77780000
H      -43.48890000     -33.09700000     -74.55670000
H      -44.45890000     -31.91220000     -73.60500000
C      -45.14130000     -30.49910000     -71.32040000
H      -44.97740000     -29.50220000     -70.78780000
H      -45.07700000     -30.24010000     -72.38970000
C      -44.17170000     -31.51110000     -70.67620000
C      -43.69250000     -31.18080000     -69.43170000
C      -43.67070000     -32.79450000     -71.14350000
H      -43.96590000     -30.21010000     -68.99850000
C      -42.76770000     -33.34350000     -70.25020000
C      -43.54810000     -33.39360000     -72.46020000
C      -42.70250000     -34.41290000     -72.43640000
S      -42.54020000     -32.36520000     -68.81260000
S      -41.74060000     -34.57240000     -70.97430000
H      -42.42780000     -35.02320000     -73.28010000
