40
Properties=species:S:1:pos:R:3 #=T CELL(abcABC):=T 1.889726e+02=T 90.00000=T Traj:=T positionsangstrom=T Step:=T 0=T Bead:=T pbc="F F F"
C      -47.44800000     -36.28820000     -72.30650000
C      -46.35670000     -35.59410000     -71.86930000
C      -46.50370000     -34.62690000     -70.81470000
C      -47.75390000     -34.38150000     -70.25800000
C      -48.83170000     -35.17000000     -70.69840000
C      -48.69750000     -36.14640000     -71.66850000
H      -47.47430000     -37.07270000     -73.12640000
H      -45.59990000     -34.07290000     -70.44270000
H      -49.73320000     -35.06780000     -70.16160000
H      -49.42700000     -36.84000000     -71.87790000
C      -47.94000000     -33.22700000     -69.33080000
H      -47.14020000     -33.25160000     -68.58040000
H      -48.90710000     -33.35380000     -68.76720000
C      -45.02580000     -35.66990000     -72.53080000
H      -44.35430000     -35.02530000     -72.01890000
H      -44.65740000     -36.71060000     -72.58160000
S      -48.19320000     -31.55300000     -70.11130000
S      -45.08310000     -35.05230000     -74.32950000
C      -47.11720000     -31.60750000     -71.60310000
H      -46.77780000     -32.64050000     -71.82630000
H      -47.63700000     -31.31830000     -72.48350000
C      -45.12270000     -33.20000000     -74.13920000
H      -45.83760000     -33.03720000     -73.33490000
H      -45.59530000     -32.87060000     -75.05170000
C      -43.76850000     -32.67470000     -73.85560000
H      -43.15060000     -33.22310000     -74.47490000
H      -43.74560000     -31.56660000     -74.02060000
C      -45.84340000     -30.74680000     -71.58850000
H      -46.04600000     -29.77250000     -71.31490000
H      -45.67550000     -30.66460000     -72.70330000
C      -44.70910000     -31.32000000     -70.83240000
C      -44.60860000     -31.04040000     -69.48340000
C      -43.82960000     -32.37290000     -71.21120000
H      -45.17370000     -30.26590000     -68.93530000
C      -43.01890000     -32.82900000     -70.08930000
C      -43.26360000     -32.96830000     -72.39180000
C      -42.12790000     -33.73260000     -72.11190000
S      -43.39370000     -32.00840000     -68.66070000
S      -41.73880000     -33.88460000     -70.46980000
H      -41.58550000     -34.34770000     -72.82300000
