40
Properties=species:S:1:pos:R:3 #=T CELL(abcABC):=T 1.889726e+02=T 90.00000=T Traj:=T positionsangstrom=T Step:=T 0=T Bead:=T pbc="F F F"
C      -45.42520000     -37.44480000     -71.30920000
C      -45.93090000     -36.54230000     -72.32020000
C      -45.02200000     -35.79980000     -73.01080000
C      -43.61020000     -36.05870000     -72.85040000
C      -43.19600000     -36.92050000     -71.88480000
C      -44.10610000     -37.63910000     -71.13880000
H      -46.06230000     -38.15560000     -70.83460000
H      -45.32790000     -35.04220000     -73.78530000
H      -42.15160000     -37.03190000     -71.71820000
H      -43.67510000     -38.42280000     -70.53890000
C      -42.59950000     -35.49010000     -73.68350000
H      -43.05770000     -35.01440000     -74.54360000
H      -41.91130000     -36.27760000     -74.03960000
C      -47.36060000     -36.31060000     -72.49330000
H      -47.55540000     -35.47150000     -73.15430000
H      -47.90560000     -37.21270000     -72.79970000
S      -41.65850000     -34.09960000     -72.78050000
S      -48.06140000     -35.91520000     -70.86020000
C      -43.04080000     -32.81090000     -72.48460000
H      -42.47950000     -31.91180000     -72.32500000
H      -43.66620000     -32.66770000     -73.34770000
C      -47.33330000     -34.23820000     -70.48570000
H      -46.29320000     -34.47580000     -70.31550000
H      -47.76000000     -33.86970000     -69.54770000
C      -47.51330000     -33.18990000     -71.60550000
H      -46.89820000     -33.51110000     -72.42920000
H      -48.61120000     -33.04050000     -71.80840000
C      -43.92380000     -32.99950000     -71.21640000
H      -43.28660000     -33.49430000     -70.47390000
H      -44.72310000     -33.74630000     -71.49200000
C      -44.44670000     -31.62890000     -70.73010000
C      -43.58880000     -30.69290000     -70.21550000
C      -45.79800000     -31.25570000     -70.64940000
H      -42.52960000     -30.72930000     -70.01340000
C      -45.96140000     -30.02170000     -70.06090000
C      -47.14960000     -31.83860000     -71.03130000
C      -48.18260000     -30.92670000     -70.73470000
S      -44.47740000     -29.34610000     -69.60120000
S      -47.60950000     -29.43330000     -69.92500000
H      -49.20890000     -30.99900000     -70.85690000
