40
Properties=species:S:1:pos:R:3 #=T CELL(abcABC):=T 1.889726e+02=T 90.00000=T Traj:=T positionsangstrom=T Step:=T 0=T Bead:=T pbc="F F F"
C      -48.99350000     -35.35910000     -72.41850000
C      -47.69290000     -35.17390000     -71.98060000
C      -47.36950000     -34.13050000     -71.11260000
C      -48.40710000     -33.35930000     -70.59020000
C      -49.72420000     -33.54370000     -70.98960000
C      -49.99890000     -34.55280000     -71.92610000
H      -49.03260000     -35.97240000     -73.36170000
H      -46.33400000     -34.13530000     -70.78650000
H      -50.47060000     -32.81320000     -70.51880000
H      -51.03410000     -34.80450000     -72.23640000
C      -48.08150000     -32.35590000     -69.35680000
H      -48.21140000     -33.01510000     -68.47110000
H      -48.99620000     -31.67770000     -69.27400000
C      -46.49680000     -35.99300000     -72.43850000
H      -45.64230000     -35.73660000     -71.79960000
H      -46.71200000     -37.11000000     -72.39640000
S      -46.61820000     -31.26930000     -69.24060000
S      -45.98360000     -35.45660000     -74.17360000
C      -46.20940000     -30.92810000     -70.97030000
H      -46.27320000     -31.82900000     -71.59940000
H      -46.80260000     -30.05470000     -71.49310000
C      -45.66630000     -33.64380000     -73.98680000
H      -46.34020000     -33.40970000     -73.14410000
H      -46.11950000     -33.34800000     -74.92290000
C      -44.34710000     -33.07390000     -73.70290000
H      -43.63190000     -33.23050000     -74.58440000
H      -44.30810000     -31.96580000     -73.62110000
C      -44.69230000     -30.48200000     -71.20890000
H      -44.59170000     -29.49210000     -70.75500000
H      -44.63740000     -30.33410000     -72.31390000
C      -43.68810000     -31.43010000     -70.62480000
C      -43.08840000     -31.22260000     -69.42890000
C      -43.31780000     -32.72270000     -71.26570000
H      -43.07940000     -30.28770000     -68.84250000
C      -42.41420000     -33.37550000     -70.39830000
C      -43.59700000     -33.52960000     -72.48310000
C      -42.85910000     -34.72720000     -72.48870000
S      -41.92970000     -32.49410000     -68.96090000
S      -41.91450000     -34.97340000     -71.01500000
H      -43.01380000     -35.53560000     -73.16270000
