40
Properties=species:S:1:pos:R:3 #=T CELL(abcABC):=T 1.889726e+02=T 90.00000=T Traj:=T positionsangstrom=T Step:=T 0=T Bead:=T pbc="F F F"
C      -45.14500000     -37.55210000     -71.16240000
C      -45.74710000     -36.72360000     -72.12660000
C      -44.83990000     -35.87120000     -72.86640000
C      -43.42680000     -36.01300000     -72.79740000
C      -42.89670000     -36.91600000     -71.81580000
C      -43.73960000     -37.57840000     -70.91130000
H      -45.65860000     -38.39310000     -70.59840000
H      -45.29170000     -35.26780000     -73.55000000
H      -41.81180000     -37.05790000     -71.68730000
H      -43.26770000     -38.21390000     -70.14650000
C      -42.57410000     -35.12530000     -73.65020000
H      -43.22070000     -34.63010000     -74.50600000
H      -41.86130000     -35.71360000     -74.27210000
C      -47.19530000     -36.69120000     -72.35520000
H      -47.38820000     -36.03080000     -73.24660000
H      -47.52280000     -37.70980000     -72.61930000
S      -41.70950000     -33.83520000     -72.68140000
S      -48.19510000     -36.04240000     -70.94320000
C      -43.03480000     -32.63360000     -72.50460000
H      -42.68270000     -31.64460000     -72.28070000
H      -43.54910000     -32.62870000     -73.44870000
C      -47.21840000     -34.47510000     -70.56290000
H      -46.14150000     -34.81360000     -70.65440000
H      -47.46700000     -34.33930000     -69.51160000
C      -47.51700000     -33.30710000     -71.48130000
H      -47.07160000     -33.50830000     -72.49310000
H      -48.56090000     -33.31410000     -71.79150000
C      -44.06310000     -32.91520000     -71.33690000
H      -43.47610000     -33.55500000     -70.60560000
H      -44.80440000     -33.58360000     -71.74030000
C      -44.56510000     -31.67910000     -70.65210000
C      -43.65570000     -30.69100000     -70.23630000
C      -45.91450000     -31.33040000     -70.56140000
H      -42.59660000     -30.58660000     -70.49650000
C      -46.11150000     -29.99620000     -70.11900000
C      -47.23050000     -31.92500000     -70.93400000
C      -48.25750000     -31.00460000     -70.75530000
S      -44.60680000     -29.23330000     -69.76810000
S      -47.73540000     -29.41980000     -70.15900000
H      -49.32030000     -31.09240000     -70.95760000
