40
Properties=species:S:1:pos:R:3 #=T CELL(abcABC):=T 1.889726e+02=T 90.00000=T Traj:=T positionsangstrom=T Step:=T 0=T Bead:=T pbc="F F F"
C      -49.01670000     -34.92470000     -71.99250000
C      -47.65000000     -34.91630000     -71.70170000
C      -47.22800000     -33.93350000     -70.79210000
C      -48.15730000     -33.14780000     -69.98780000
C      -49.54190000     -33.22640000     -70.30690000
C      -49.92140000     -34.10290000     -71.32240000
H      -49.42140000     -35.55470000     -72.77550000
H      -46.20480000     -33.84050000     -70.47780000
H      -50.27140000     -32.64060000     -69.82860000
H      -50.92160000     -34.18250000     -71.57900000
C      -47.72780000     -32.47610000     -68.73690000
H      -47.56620000     -33.21120000     -67.98580000
H      -48.34580000     -31.63000000     -68.31770000
C      -46.63580000     -35.75630000     -72.44550000
H      -45.63400000     -35.79950000     -71.99640000
H      -46.98350000     -36.80900000     -72.65960000
S      -45.97950000     -31.72690000     -69.06370000
S      -46.27200000     -35.17830000     -74.19820000
C      -46.11490000     -30.85530000     -70.64660000
H      -46.63130000     -31.53510000     -71.29440000
H      -46.73620000     -29.95940000     -70.57400000
C      -46.14730000     -33.34020000     -73.89260000
H      -46.77310000     -33.05570000     -73.02580000
H      -46.49600000     -32.78200000     -74.71040000
C      -44.70490000     -32.82110000     -73.66100000
H      -44.18700000     -32.86720000     -74.62230000
H      -44.83990000     -31.81070000     -73.30360000
C      -44.67180000     -30.49910000     -71.12910000
H      -44.31880000     -29.58160000     -70.58350000
H      -44.71100000     -30.11590000     -72.12490000
C      -43.71170000     -31.59670000     -70.78880000
C      -42.90920000     -31.49850000     -69.63330000
C      -43.47450000     -32.85880000     -71.49340000
H      -42.66920000     -30.53900000     -69.20140000
C      -42.46610000     -33.61350000     -70.85230000
C      -43.83530000     -33.54290000     -72.70470000
C      -43.31090000     -34.73710000     -72.92030000
S      -41.90300000     -32.90250000     -69.41900000
S      -42.03610000     -35.15500000     -71.73470000
H      -43.71080000     -35.28880000     -73.76240000
