40
Properties=species:S:1:pos:R:3 #=T CELL(abcABC):=T 1.889726e+02=T 90.00000=T Traj:=T positionsangstrom=T Step:=T 0=T Bead:=T pbc="F F F"
C      -48.99270000     -34.90220000     -72.26810000
C      -47.65470000     -34.90490000     -71.80340000
C      -47.32200000     -34.13090000     -70.69200000
C      -48.23770000     -33.35220000     -69.97660000
C      -49.55740000     -33.45710000     -70.39550000
C      -49.91460000     -34.08640000     -71.58760000
H      -49.32530000     -35.41320000     -73.18790000
H      -46.25450000     -34.08360000     -70.42630000
H      -50.42450000     -33.09020000     -69.77290000
H      -51.00090000     -34.20970000     -71.81690000
C      -47.82620000     -32.32240000     -68.90990000
H      -48.02090000     -32.72660000     -67.87330000
H      -48.47100000     -31.48850000     -69.07520000
C      -46.58450000     -35.83590000     -72.46260000
H      -45.68550000     -35.82440000     -71.83950000
H      -46.93790000     -36.87120000     -72.51760000
S      -46.12820000     -31.67150000     -68.96060000
S      -46.17220000     -35.22170000     -74.19310000
C      -46.03190000     -30.89950000     -70.65620000
H      -46.40910000     -31.68030000     -71.30530000
H      -46.67260000     -30.03510000     -70.81840000
C      -46.04960000     -33.41690000     -73.99180000
H      -46.84810000     -33.08520000     -73.31970000
H      -46.40460000     -33.07960000     -75.01710000
C      -44.60860000     -32.84780000     -73.78450000
H      -44.11900000     -32.99720000     -74.76680000
H      -44.67070000     -31.77810000     -73.78060000
C      -44.68920000     -30.47660000     -71.16630000
H      -44.48380000     -29.48270000     -70.81440000
H      -44.78080000     -30.47120000     -72.27340000
C      -43.62060000     -31.53620000     -70.73310000
C      -42.84600000     -31.42560000     -69.57790000
C      -43.37880000     -32.75030000     -71.42500000
H      -42.70940000     -30.51850000     -68.98740000
C      -42.47380000     -33.54100000     -70.74820000
C      -43.80450000     -33.48060000     -72.64050000
C      -43.17270000     -34.67560000     -72.86060000
S      -41.83070000     -32.81810000     -69.42870000
S      -42.23330000     -35.15410000     -71.49970000
H      -43.15860000     -35.14070000     -73.83370000
