40
Properties=species:S:1:pos:R:3 #=T CELL(abcABC):=T 1.889726e+02=T 90.00000=T Traj:=T positionsangstrom=T Step:=T 0=T Bead:=T pbc="F F F"
C      -45.34240000     -37.53210000     -71.40570000
C      -45.84170000     -36.69750000     -72.38610000
C      -44.89710000     -36.01000000     -73.19860000
C      -43.56920000     -36.06630000     -72.83350000
C      -43.11800000     -36.81000000     -71.72230000
C      -44.02680000     -37.60430000     -71.06280000
H      -46.05110000     -37.94610000     -70.68430000
H      -45.16820000     -35.36230000     -73.98010000
H      -42.11190000     -36.78780000     -71.40870000
H      -43.76650000     -38.05800000     -70.09600000
C      -42.48880000     -35.21730000     -73.59130000
H      -42.92660000     -34.76450000     -74.48760000
H      -41.63220000     -35.79160000     -73.85020000
C      -47.36200000     -36.44970000     -72.55500000
H      -47.68730000     -35.79320000     -73.34320000
H      -47.75110000     -37.44090000     -72.84370000
S      -41.64630000     -33.89140000     -72.64250000
S      -48.07200000     -35.93240000     -70.87620000
C      -42.98210000     -32.64470000     -72.45740000
H      -42.50710000     -31.61380000     -72.42190000
H      -43.44170000     -32.58890000     -73.44450000
C      -47.19980000     -34.37780000     -70.38060000
H      -46.16030000     -34.52170000     -70.28520000
H      -47.55570000     -34.10960000     -69.36620000
C      -47.46300000     -33.26190000     -71.36670000
H      -47.00260000     -33.44310000     -72.39930000
H      -48.50360000     -33.24800000     -71.54410000
C      -44.04140000     -33.01290000     -71.40910000
H      -43.58040000     -33.58910000     -70.58890000
H      -44.85270000     -33.51520000     -71.80190000
C      -44.55610000     -31.71360000     -70.71190000
C      -43.67820000     -30.78760000     -70.20590000
C      -45.88360000     -31.30360000     -70.58760000
H      -42.57750000     -30.84200000     -70.19570000
C      -46.01060000     -29.97380000     -70.22830000
C      -47.22180000     -31.90840000     -70.86100000
C      -48.26320000     -31.00910000     -70.60480000
S      -44.47410000     -29.36180000     -69.72320000
S      -47.72240000     -29.40820000     -70.06940000
H      -49.28520000     -31.22170000     -70.70030000
