40
Properties=species:S:1:pos:R:3 #=T CELL(abcABC):=T 1.889726e+02=T 90.00000=T Traj:=T positionsangstrom=T Step:=T 0=T Bead:=T pbc="F F F"
C      -44.38670000     -36.91320000     -70.49200000
C      -45.07330000     -36.79490000     -71.68050000
C      -44.37860000     -36.13660000     -72.71690000
C      -43.08960000     -35.64080000     -72.59360000
C      -42.43720000     -35.77840000     -71.32780000
C      -43.09630000     -36.45230000     -70.28580000
H      -44.82170000     -37.50490000     -69.62900000
H      -44.92350000     -35.98450000     -73.64900000
H      -41.47260000     -35.27970000     -71.20890000
H      -42.52800000     -36.53270000     -69.37680000
C      -42.55340000     -34.79670000     -73.78170000
H      -43.36220000     -34.68540000     -74.57930000
H      -41.78890000     -35.38090000     -74.31750000
C      -46.52510000     -37.20260000     -71.72060000
H      -47.00900000     -36.89970000     -72.65970000
H      -46.73230000     -38.24630000     -71.58220000
S      -41.85420000     -33.17710000     -73.36610000
S      -47.50620000     -36.42540000     -70.38140000
C      -43.38910000     -32.27460000     -72.97780000
H      -43.14330000     -31.19390000     -72.86680000
H      -44.08240000     -32.31060000     -73.83600000
C      -46.82270000     -34.67630000     -70.30990000
H      -45.79800000     -34.74880000     -69.94260000
H      -47.33530000     -34.21900000     -69.46700000
C      -47.23880000     -33.85480000     -71.51290000
H      -46.62940000     -34.02550000     -72.36450000
H      -48.19290000     -34.27160000     -71.77540000
C      -44.01240000     -32.76800000     -71.61280000
H      -43.20950000     -33.07350000     -70.86440000
H      -44.63340000     -33.62240000     -71.66260000
C      -44.85370000     -31.61570000     -71.02090000
C      -44.20840000     -30.51310000     -70.45470000
C      -46.29830000     -31.49300000     -70.93890000
H      -43.16630000     -30.36130000     -70.32860000
C      -46.70270000     -30.19270000     -70.49970000
C      -47.39160000     -32.39930000     -71.12910000
C      -48.56700000     -31.80740000     -70.80000000
S      -45.32590000     -29.24270000     -69.97550000
S      -48.45420000     -30.15260000     -70.30370000
H      -49.54540000     -32.20320000     -70.98350000
