40
Properties=species:S:1:pos:R:3 #=T CELL(abcABC):=T 1.889726e+02=T 90.00000=T Traj:=T positionsangstrom=T Step:=T 0=T Bead:=T pbc="F F F"
C      -48.66880000     -34.89420000     -71.69180000
C      -47.25210000     -34.55620000     -71.55430000
C      -46.87290000     -33.83880000     -70.38300000
C      -47.77150000     -33.47360000     -69.37750000
C      -49.17320000     -33.68710000     -69.61400000
C      -49.59750000     -34.39340000     -70.72730000
H      -48.95100000     -35.50580000     -72.55740000
H      -45.79710000     -33.69180000     -70.21980000
H      -49.89890000     -33.23100000     -68.96740000
H      -50.64840000     -34.67690000     -70.82210000
C      -47.36630000     -32.69030000     -68.14370000
H      -47.39770000     -33.24270000     -67.18920000
H      -48.11470000     -31.87110000     -68.01380000
C      -46.34170000     -35.06130000     -72.60620000
H      -45.32410000     -35.00160000     -72.18430000
H      -46.49510000     -36.12140000     -72.88860000
S      -45.73510000     -31.90430000     -68.19150000
S      -46.67210000     -34.16220000     -74.25470000
C      -45.79970000     -30.90320000     -69.78100000
H      -46.59410000     -31.35530000     -70.41640000
H      -46.12400000     -29.95460000     -69.57130000
C      -46.44000000     -32.46860000     -73.65760000
H      -46.85370000     -32.40290000     -72.68690000
H      -47.10400000     -31.83070000     -74.23200000
C      -45.00720000     -31.90820000     -73.74360000
H      -44.80920000     -31.61850000     -74.86490000
H      -45.16990000     -31.01850000     -73.12980000
C      -44.42750000     -30.83420000     -70.47540000
H      -43.88310000     -30.01370000     -70.02470000
H      -44.63440000     -30.43630000     -71.51400000
C      -43.62400000     -32.08510000     -70.63140000
C      -43.01020000     -32.74010000     -69.57390000
C      -43.55640000     -32.91960000     -71.80860000
H      -43.11680000     -32.37580000     -68.56380000
C      -42.65570000     -34.05850000     -71.61930000
C      -43.94940000     -32.80170000     -73.21560000
C      -43.38690000     -33.78110000     -74.00580000
S      -42.16420000     -34.21510000     -69.95670000
S      -42.55430000     -35.05730000     -73.09580000
H      -43.45910000     -33.85330000     -75.09640000
