40
Properties=species:S:1:pos:R:3 #=T CELL(abcABC):=T 1.889726e+02=T 90.00000=T Traj:=T positionsangstrom=T Step:=T 0=T Bead:=T pbc="F F F"
C      -44.26590000     -37.05920000     -70.48840000
C      -45.06610000     -36.73590000     -71.62960000
C      -44.54420000     -36.02770000     -72.64070000
C      -43.15770000     -35.74160000     -72.64130000
C      -42.35620000     -36.13050000     -71.62080000
C      -42.91550000     -36.76490000     -70.47880000
H      -44.90760000     -37.50310000     -69.58850000
H      -45.26440000     -35.72630000     -73.39160000
H      -41.28120000     -35.96050000     -71.66810000
H      -42.28310000     -36.96740000     -69.63440000
C      -42.65610000     -34.90910000     -73.78970000
H      -43.41760000     -34.69570000     -74.51910000
H      -41.86470000     -35.49360000     -74.31430000
C      -46.55810000     -37.07970000     -71.70600000
H      -46.86480000     -36.87870000     -72.73900000
H      -46.60860000     -38.23090000     -71.56080000
S      -41.98830000     -33.19240000     -73.41720000
S      -47.66820000     -36.35250000     -70.45270000
C      -43.48310000     -32.39640000     -72.68830000
H      -43.27770000     -31.30170000     -72.77970000
H      -44.24630000     -32.62510000     -73.42910000
C      -47.56920000     -34.53840000     -70.17270000
H      -46.95270000     -34.26330000     -69.32200000
H      -48.58430000     -34.29300000     -69.89800000
C      -47.32630000     -33.80830000     -71.47980000
H      -46.57280000     -34.33250000     -72.06830000
H      -48.25630000     -33.96590000     -72.04040000
C      -43.83780000     -32.85810000     -71.33400000
H      -42.99870000     -33.05000000     -70.68050000
H      -44.32880000     -33.83070000     -71.41010000
C      -44.72230000     -31.68760000     -70.67110000
C      -44.08060000     -30.58260000     -70.13220000
C      -46.11050000     -31.46010000     -70.89540000
H      -43.01660000     -30.54030000     -69.89790000
C      -46.54420000     -30.22880000     -70.44930000
C      -47.26890000     -32.30240000     -71.28510000
C      -48.42810000     -31.63410000     -71.27360000
S      -45.21980000     -29.23670000     -69.80600000
S      -48.25930000     -29.93960000     -70.56100000
H      -49.39920000     -32.11250000     -71.17110000
