40
Properties=species:S:1:pos:R:3 #=T CELL(abcABC):=T 1.889726e+02=T 90.00000=T Traj:=T positionsangstrom=T Step:=T 0=T Bead:=T pbc="F F F"
C      -48.99840000     -34.81350000     -71.75860000
C      -47.60410000     -34.58420000     -71.54310000
C      -47.25900000     -33.84710000     -70.42060000
C      -48.19790000     -33.41330000     -69.48340000
C      -49.55450000     -33.67980000     -69.68480000
C      -49.91390000     -34.51270000     -70.78000000
H      -49.27880000     -35.42480000     -72.62400000
H      -46.23670000     -33.69170000     -70.12500000
H      -50.32950000     -33.67250000     -68.94870000
H      -50.89290000     -34.90960000     -70.82740000
C      -47.75490000     -32.47900000     -68.39980000
H      -47.74900000     -33.05860000     -67.40470000
H      -48.47950000     -31.71030000     -68.39650000
C      -46.53700000     -35.29400000     -72.37620000
H      -45.51450000     -35.11320000     -72.03420000
H      -46.67340000     -36.43760000     -72.55410000
S      -46.14530000     -31.70150000     -68.60220000
S      -46.69030000     -34.69660000     -74.17500000
C      -46.00850000     -30.96730000     -70.33240000
H      -46.46950000     -31.70190000     -70.94230000
H      -46.48250000     -30.03010000     -70.37250000
C      -46.12740000     -32.96430000     -73.89140000
H      -46.27530000     -32.83010000     -72.81180000
H      -46.82670000     -32.36740000     -74.44520000
C      -44.64920000     -32.58470000     -74.11030000
H      -44.44020000     -32.84940000     -75.16520000
H      -44.61580000     -31.51070000     -74.21610000
C      -44.61370000     -30.67980000     -70.83350000
H      -44.22220000     -29.81460000     -70.23400000
H      -44.66510000     -30.48540000     -71.90940000
C      -43.64690000     -31.84650000     -70.73420000
C      -42.96070000     -32.10210000     -69.54480000
C      -43.41850000     -32.91450000     -71.75910000
H      -42.90190000     -31.37700000     -68.71350000
C      -42.35700000     -33.75230000     -71.36000000
C      -43.66230000     -33.24890000     -73.17660000
C      -43.05670000     -34.38940000     -73.65380000
S      -41.87550000     -33.48850000     -69.69420000
S      -41.85840000     -34.97520000     -72.45650000
H      -43.10160000     -34.73720000     -74.68880000
