40
Properties=species:S:1:pos:R:3 #=T CELL(abcABC):=T 1.889726e+02=T 90.00000=T Traj:=T positionsangstrom=T Step:=T 0=T Bead:=T pbc="F F F"
C      -44.25070000     -37.03050000     -70.54640000
C      -45.14390000     -36.61400000     -71.55310000
C      -44.52930000     -35.93690000     -72.62710000
C      -43.19210000     -35.60750000     -72.67390000
C      -42.36800000     -35.96020000     -71.55020000
C      -42.88970000     -36.66810000     -70.48990000
H      -44.72960000     -37.69140000     -69.67960000
H      -45.11130000     -35.66970000     -73.54170000
H      -41.27090000     -35.71340000     -71.56530000
H      -42.25020000     -37.04210000     -69.70790000
C      -42.42650000     -35.01130000     -73.80100000
H      -43.12650000     -34.97420000     -74.66480000
H      -41.55890000     -35.58870000     -74.00550000
C      -46.55640000     -37.09370000     -71.70840000
H      -47.00350000     -36.76400000     -72.62450000
H      -46.56600000     -38.20540000     -71.66240000
S      -41.87700000     -33.19240000     -73.44290000
S      -47.69380000     -36.51350000     -70.35690000
C      -43.41290000     -32.26220000     -72.92220000
H      -43.13700000     -31.20290000     -72.92180000
H      -44.22930000     -32.39170000     -73.67150000
C      -47.19600000     -34.76610000     -70.24000000
H      -46.07230000     -34.72870000     -70.16050000
H      -47.63600000     -34.32310000     -69.36070000
C      -47.36170000     -33.88370000     -71.49220000
H      -46.48960000     -34.03600000     -72.15580000
H      -48.31990000     -34.02450000     -72.01350000
C      -43.92660000     -32.71140000     -71.49530000
H      -42.98270000     -32.88240000     -70.94740000
H      -44.38590000     -33.68560000     -71.57560000
C      -44.78330000     -31.62690000     -70.82980000
C      -44.18720000     -30.45720000     -70.43650000
C      -46.20050000     -31.57250000     -70.69070000
H      -43.12430000     -30.38720000     -70.38070000
C      -46.65210000     -30.31630000     -70.22860000
C      -47.33900000     -32.39360000     -71.08500000
C      -48.46500000     -31.64220000     -71.06210000
S      -45.32570000     -29.22280000     -69.83440000
S      -48.32870000     -29.95060000     -70.52530000
H      -49.39730000     -32.08940000     -71.27820000
