40
Properties=species:S:1:pos:R:3 #=T CELL(abcABC):=T 1.889726e+02=T 90.00000=T Traj:=T positionsangstrom=T Step:=T 0=T Bead:=T pbc="F F F"
C      -44.04390000     -37.02240000     -70.44780000
C      -44.38220000     -36.79050000     -71.75790000
C      -43.61270000     -35.98730000     -72.60360000
C      -42.43920000     -35.33260000     -72.12630000
C      -42.14850000     -35.56920000     -70.75850000
C      -42.90920000     -36.39200000     -69.93040000
H      -44.59530000     -37.77080000     -69.95770000
H      -43.85560000     -35.89710000     -73.67030000
H      -41.23760000     -34.97060000     -70.32560000
H      -42.64560000     -36.52510000     -68.86450000
C      -41.50760000     -34.61600000     -73.06940000
H      -41.48150000     -35.03660000     -74.13000000
H      -40.49070000     -34.71420000     -72.65200000
C      -45.75640000     -37.25620000     -72.29160000
H      -45.98160000     -36.75680000     -73.29930000
H      -45.73690000     -38.29420000     -72.39360000
S      -41.86360000     -32.81560000     -73.05800000
S      -47.19160000     -36.81690000     -71.23140000
C      -43.67750000     -32.21990000     -72.85770000
H      -43.42280000     -31.21880000     -73.21850000
H      -44.33630000     -32.84680000     -73.46880000
C      -46.86420000     -35.10040000     -70.62860000
H      -45.85800000     -35.04200000     -70.24750000
H      -47.45410000     -34.94410000     -69.73770000
C      -47.10310000     -34.00660000     -71.67870000
H      -46.18180000     -33.80130000     -72.26080000
H      -47.83600000     -34.31800000     -72.45380000
C      -44.16610000     -32.26840000     -71.47070000
H      -43.39120000     -32.00950000     -70.73940000
H      -44.61040000     -33.26200000     -71.17460000
C      -45.17930000     -31.18470000     -71.09790000
C      -44.81050000     -29.88600000     -70.83580000
C      -46.56370000     -31.45700000     -70.91040000
H      -43.84200000     -29.44390000     -70.90610000
C      -47.26280000     -30.37020000     -70.38640000
C      -47.51190000     -32.62350000     -71.18600000
C      -48.75160000     -32.33340000     -70.62830000
S      -46.20600000     -29.04720000     -70.08490000
S      -48.93770000     -30.67510000     -70.12800000
H      -49.56230000     -32.98250000     -70.64190000
