40
Properties=species:S:1:pos:R:3 #=T CELL(abcABC):=T 1.889726e+02=T 90.00000=T Traj:=T positionsangstrom=T Step:=T 0=T Bead:=T pbc="F F F"
C      -49.37590000     -34.23500000     -71.76230000
C      -47.99270000     -34.53620000     -71.70500000
C      -47.34690000     -34.37120000     -70.49570000
C      -48.07840000     -33.94430000     -69.33500000
C      -49.51260000     -33.78980000     -69.40900000
C      -50.14020000     -33.99810000     -70.64420000
H      -49.86040000     -34.30680000     -72.69470000
H      -46.28350000     -34.56110000     -70.41630000
H      -50.03470000     -33.36690000     -68.53220000
H      -51.16830000     -33.84100000     -70.63450000
C      -47.40380000     -33.55450000     -68.06260000
H      -47.38060000     -34.50020000     -67.37250000
H      -47.99890000     -32.81680000     -67.41490000
C      -47.23640000     -34.83870000     -72.93330000
H      -46.31260000     -35.39760000     -72.69720000
H      -47.81780000     -35.47630000     -73.57660000
S      -45.56360000     -33.06930000     -68.30500000
S      -46.84170000     -33.44140000     -74.02330000
C      -45.64520000     -31.54100000     -69.36970000
H      -46.45700000     -31.68520000     -70.10710000
H      -45.96340000     -30.75530000     -68.60750000
C      -46.33740000     -31.96980000     -73.12880000
H      -46.48400000     -32.02180000     -72.04950000
H      -46.97170000     -31.11150000     -73.41510000
C      -44.90810000     -31.62370000     -73.37460000
H      -44.65900000     -31.05950000     -74.41130000
H      -44.65120000     -30.75860000     -72.67730000
C      -44.33000000     -31.13110000     -70.06200000
H      -43.80260000     -30.52690000     -69.39490000
H      -44.72200000     -30.63040000     -70.91890000
C      -43.43520000     -32.26830000     -70.51040000
C      -42.54180000     -32.80250000     -69.54230000
C      -43.29180000     -32.80880000     -71.83540000
H      -42.77910000     -32.81420000     -68.48290000
C      -42.30110000     -33.84440000     -71.91070000
C      -43.88220000     -32.67150000     -73.14400000
C      -43.48950000     -33.61580000     -74.06890000
S      -41.65120000     -34.07760000     -70.34380000
S      -42.10020000     -34.54540000     -73.46040000
H      -43.87590000     -33.74020000     -75.05710000
