40
Properties=species:S:1:pos:R:3 #=T CELL(abcABC):=T 1.889726e+02=T 90.00000=T Traj:=T positionsangstrom=T Step:=T 0=T Bead:=T pbc="F F F"
C      -49.52740000     -33.83910000     -71.86700000
C      -48.34330000     -34.50320000     -72.10010000
C      -47.58600000     -34.97450000     -71.01400000
C      -47.90280000     -34.72420000     -69.66610000
C      -48.94400000     -33.85020000     -69.46770000
C      -49.77490000     -33.42080000     -70.52990000
H      -50.09730000     -33.48290000     -72.72270000
H      -46.66610000     -35.47740000     -71.25800000
H      -49.19530000     -33.65840000     -68.44670000
H      -50.55720000     -32.73350000     -70.39030000
C      -47.08380000     -35.10370000     -68.45440000
H      -46.68390000     -36.16500000     -68.50030000
H      -47.72050000     -35.03850000     -67.56270000
C      -47.85250000     -34.74860000     -73.49110000
H      -47.21860000     -35.60080000     -73.63760000
H      -48.71000000     -34.81140000     -74.14460000
S      -45.45860000     -34.07000000     -68.21120000
S      -46.80560000     -33.27790000     -74.21460000
C      -45.66950000     -32.73130000     -69.52760000
H      -45.68330000     -33.19990000     -70.56450000
H      -46.59150000     -32.21580000     -69.23720000
C      -46.66310000     -31.98150000     -72.86250000
H      -46.90340000     -32.44530000     -71.90470000
H      -47.46950000     -31.30920000     -73.11890000
C      -45.29210000     -31.29720000     -72.93140000
H      -45.31820000     -30.91670000     -73.95010000
H      -45.35220000     -30.44990000     -72.27460000
C      -44.69550000     -31.58360000     -69.54000000
H      -44.47350000     -31.22490000     -68.53800000
H      -45.12620000     -30.82090000     -70.14410000
C      -43.41810000     -32.07790000     -70.15900000
C      -42.38570000     -32.52960000     -69.43940000
C      -43.32220000     -32.42520000     -71.55640000
H      -42.17560000     -32.42290000     -68.39830000
C      -42.23670000     -33.34340000     -71.78850000
C      -44.19710000     -32.32690000     -72.71250000
C      -43.64770000     -33.00880000     -73.78470000
S      -41.18250000     -33.37490000     -70.38710000
S      -42.13580000     -33.88450000     -73.43530000
H      -44.13840000     -33.12360000     -74.77040000
