40
Properties=species:S:1:pos:R:3 #=T CELL(abcABC):=T 1.889726e+02=T 90.00000=T Traj:=T positionsangstrom=T Step:=T 0=T Bead:=T pbc="F F F"
C      -43.88980000     -36.87470000     -70.48990000
C      -44.29100000     -36.55330000     -71.79710000
C      -43.42680000     -35.70050000     -72.60150000
C      -42.26240000     -35.12420000     -72.07780000
C      -41.85700000     -35.61000000     -70.87940000
C      -42.57750000     -36.50570000     -70.00430000
H      -44.61870000     -37.37130000     -69.78950000
H      -43.72590000     -35.34730000     -73.63230000
H      -40.82140000     -35.24370000     -70.41450000
H      -42.25360000     -36.99050000     -69.10040000
C      -41.42370000     -34.18520000     -72.82040000
H      -41.41810000     -34.08740000     -73.93030000
H      -40.35140000     -34.43860000     -72.56950000
C      -45.64470000     -37.10440000     -72.33620000
H      -45.80540000     -36.64590000     -73.31170000
H      -45.54180000     -38.24170000     -72.50610000
S      -41.75420000     -32.38040000     -72.40240000
S      -47.06590000     -36.90880000     -71.19560000
C      -43.60100000     -32.29000000     -72.44600000
H      -43.83570000     -31.35940000     -72.96390000
H      -43.97300000     -33.03420000     -73.11680000
C      -47.11490000     -35.23130000     -70.55190000
H      -46.24390000     -34.96540000     -70.00230000
H      -48.00780000     -35.12630000     -69.99840000
C      -47.03400000     -34.21260000     -71.66910000
H      -46.09200000     -34.04540000     -72.08950000
H      -47.62510000     -34.64740000     -72.50450000
C      -44.04650000     -32.39050000     -70.94920000
H      -43.31730000     -31.81500000     -70.35830000
H      -44.15630000     -33.42530000     -70.68640000
C      -45.33460000     -31.51390000     -70.73300000
C      -45.08800000     -30.19910000     -70.28590000
C      -46.71140000     -31.66140000     -70.94410000
H      -44.11630000     -29.73140000     -69.99750000
C      -47.42880000     -30.53110000     -70.67660000
C      -47.55170000     -32.76790000     -71.30060000
C      -48.88280000     -32.40680000     -71.31620000
S      -46.43440000     -29.14570000     -70.32990000
S      -49.17180000     -30.76080000     -70.92200000
H      -49.62250000     -33.06500000     -71.48550000
