40
Properties=species:S:1:pos:R:3 #=T CELL(abcABC):=T 1.889726e+02=T 90.00000=T Traj:=T positionsangstrom=T Step:=T 0=T Bead:=T pbc="F F F"
C      -44.03710000     -36.79690000     -70.45570000
C      -44.35390000     -36.61850000     -71.79320000
C      -43.45640000     -35.92600000     -72.62100000
C      -42.25380000     -35.34430000     -72.12320000
C      -41.89770000     -35.67370000     -70.83900000
C      -42.80620000     -36.40150000     -70.00450000
H      -44.83940000     -37.12050000     -69.74000000
H      -43.65400000     -35.65430000     -73.65120000
H      -40.88440000     -35.18390000     -70.50030000
H      -42.55620000     -36.63140000     -68.95810000
C      -41.42210000     -34.46230000     -73.03930000
H      -41.56240000     -34.68390000     -74.06550000
H      -40.44120000     -34.84440000     -72.88280000
C      -45.61550000     -37.13400000     -72.33930000
H      -45.87860000     -36.75440000     -73.29830000
H      -45.63090000     -38.26360000     -72.40310000
S      -41.76850000     -32.67290000     -72.88930000
S      -47.17550000     -36.84900000     -71.27840000
C      -43.64920000     -32.63030000     -72.78700000
H      -44.06990000     -31.95330000     -73.52920000
H      -44.14100000     -33.56800000     -73.03960000
C      -46.96330000     -35.02770000     -70.64720000
H      -45.94800000     -35.00160000     -70.20850000
H      -47.81660000     -34.92600000     -69.91970000
C      -47.20970000     -33.98710000     -71.78470000
H      -46.25540000     -34.05850000     -72.38570000
H      -47.98460000     -34.36050000     -72.42690000
C      -44.00070000     -32.23250000     -71.31150000
H      -43.06220000     -31.75820000     -71.01300000
H      -44.08110000     -33.18560000     -70.85350000
C      -45.21710000     -31.29480000     -70.93450000
C      -44.93270000     -29.96090000     -70.59690000
C      -46.63950000     -31.60100000     -70.79480000
H      -43.99290000     -29.43060000     -70.73020000
C      -47.32190000     -30.47310000     -70.36110000
C      -47.54500000     -32.66980000     -71.14540000
C      -48.86050000     -32.34440000     -70.87790000
S      -46.34630000     -29.04650000     -70.17160000
S      -49.10220000     -30.70880000     -70.22350000
H      -49.62080000     -32.98880000     -71.11410000
