40
Properties=species:S:1:pos:R:3 #=T CELL(abcABC):=T 1.889726e+02=T 90.00000=T Traj:=T positionsangstrom=T Step:=T 0=T Bead:=T pbc="F F F"
C      -43.11630000     -36.97510000     -71.21750000
C      -43.72800000     -36.35320000     -72.37230000
C      -43.23220000     -35.09100000     -72.76260000
C      -42.25580000     -34.44320000     -72.00470000
C      -41.64590000     -35.12850000     -70.88570000
C      -42.04310000     -36.44110000     -70.54730000
H      -43.43290000     -38.02870000     -71.10210000
H      -43.75830000     -34.62030000     -73.58220000
H      -41.01810000     -34.40100000     -70.21270000
H      -41.49700000     -36.93360000     -69.79090000
C      -41.81760000     -33.00450000     -72.25300000
H      -42.40730000     -32.31300000     -72.83660000
H      -40.88380000     -32.86920000     -72.76010000
C      -44.92210000     -36.93070000     -73.03200000
H      -45.21530000     -36.25330000     -73.85800000
H      -44.61470000     -37.91340000     -73.45150000
S      -41.68350000     -32.08960000     -70.66040000
S      -46.27770000     -37.17790000     -71.88950000
C      -43.35640000     -31.24380000     -70.49720000
H      -43.27960000     -30.69420000     -69.52530000
H      -43.45980000     -30.62380000     -71.41750000
C      -46.80010000     -35.46260000     -71.31250000
H      -46.42310000     -35.30750000     -70.34060000
H      -47.88130000     -35.53870000     -71.15890000
C      -46.60770000     -34.27700000     -72.31230000
H      -45.63820000     -33.81780000     -72.25910000
H      -46.92320000     -34.55730000     -73.36370000
C      -44.51530000     -32.24750000     -70.31260000
H      -44.43200000     -32.94860000     -69.43320000
H      -44.57830000     -32.95430000     -71.17140000
C      -45.82970000     -31.59130000     -70.20080000
C      -45.96940000     -30.36240000     -69.58450000
C      -46.99060000     -31.97650000     -70.98130000
H      -45.26650000     -29.74120000     -69.00960000
C      -47.99270000     -31.02380000     -70.87130000
C      -47.40390000     -33.04110000     -71.87810000
C      -48.58950000     -32.70820000     -72.46990000
S      -47.63580000     -29.70740000     -69.83240000
S      -49.39490000     -31.39360000     -71.85550000
H      -48.91900000     -33.27300000     -73.39650000
