40
Properties=species:S:1:pos:R:3 #=T CELL(abcABC):=T 1.889726e+02=T 90.00000=T Traj:=T positionsangstrom=T Step:=T 0=T Bead:=T pbc="F F F"
C      -42.69060000     -36.93210000     -71.52870000
C      -43.01190000     -35.88070000     -72.42190000
C      -42.48080000     -34.58550000     -72.24610000
C      -41.64090000     -34.32880000     -71.18550000
C      -41.36290000     -35.34330000     -70.27740000
C      -41.85600000     -36.63860000     -70.47160000
H      -43.16220000     -37.90000000     -71.57970000
H      -42.64820000     -33.86510000     -73.09370000
H      -40.54020000     -35.23510000     -69.56910000
H      -41.60890000     -37.33580000     -69.69650000
C      -41.01950000     -32.87110000     -70.99560000
H      -41.00950000     -32.44470000     -71.97620000
H      -40.01760000     -32.87910000     -70.57320000
C      -44.01030000     -36.10900000     -73.51910000
H      -44.22850000     -35.14800000     -74.10770000
H      -43.73730000     -36.85100000     -74.31980000
S      -42.09500000     -31.83110000     -69.96200000
S      -45.61410000     -36.75380000     -72.99370000
C      -43.75390000     -31.41340000     -70.77860000
H      -43.89220000     -30.30440000     -70.63050000
H      -43.62990000     -31.55610000     -71.89200000
C      -46.32140000     -35.40640000     -71.96730000
H      -45.62910000     -35.29460000     -71.13020000
H      -47.30240000     -35.79120000     -71.57380000
C      -46.46880000     -34.08630000     -72.71500000
H      -45.49790000     -33.55670000     -72.86600000
H      -46.92600000     -34.15190000     -73.72170000
C      -44.92350000     -32.23200000     -70.12860000
H      -44.63710000     -32.44860000     -69.11160000
H      -44.89620000     -33.19920000     -70.64460000
C      -46.28090000     -31.60730000     -70.24970000
C      -46.70870000     -30.56800000     -69.49920000
C      -47.31100000     -32.06640000     -71.12420000
H      -46.15290000     -30.17090000     -68.62540000
C      -48.51200000     -31.39230000     -70.95180000
C      -47.53360000     -33.18170000     -72.04370000
C      -48.83300000     -33.26740000     -72.46600000
S      -48.32540000     -30.00230000     -69.79710000
S      -49.89630000     -31.95120000     -71.84170000
H      -49.22400000     -33.91220000     -73.23860000
