40
Properties=species:S:1:pos:R:3 #=T CELL(abcABC):=T 1.889726e+02=T 90.00000=T Traj:=T positionsangstrom=T Step:=T 0=T Bead:=T pbc="F F F"
C      -42.70240000     -36.79650000     -71.50410000
C      -42.91800000     -35.76930000     -72.46830000
C      -42.36090000     -34.49900000     -72.16160000
C      -41.67460000     -34.22010000     -70.99660000
C      -41.36010000     -35.31770000     -70.11160000
C      -41.81160000     -36.57340000     -70.43220000
H      -42.95550000     -37.78670000     -71.77710000
H      -42.61380000     -33.65470000     -72.79250000
H      -40.94540000     -35.15710000     -69.07010000
H      -41.52310000     -37.47020000     -69.86470000
C      -41.09730000     -32.85100000     -70.77520000
H      -40.95820000     -32.36200000     -71.74590000
H      -40.10430000     -32.91470000     -70.25210000
C      -43.71790000     -36.02730000     -73.64620000
H      -43.64110000     -35.13320000     -74.24060000
H      -43.26580000     -36.86620000     -74.18990000
S      -42.19750000     -31.74490000     -69.75360000
S      -45.45100000     -36.60750000     -73.20530000
C      -43.80700000     -31.65420000     -70.68760000
H      -44.10350000     -30.64610000     -70.72470000
H      -43.64980000     -31.95180000     -71.74080000
C      -46.17580000     -35.37790000     -72.10530000
H      -45.56760000     -35.32480000     -71.15400000
H      -47.10320000     -35.78900000     -71.80350000
C      -46.38900000     -33.95680000     -72.77040000
H      -45.49790000     -33.46300000     -72.78070000
H      -46.45040000     -34.16760000     -73.85850000
C      -44.99330000     -32.40200000     -70.14400000
H      -44.89320000     -32.50730000     -69.02870000
H      -45.10220000     -33.42660000     -70.45760000
C      -46.34970000     -31.66090000     -70.31560000
C      -46.69280000     -30.53550000     -69.65510000
C      -47.43480000     -32.18810000     -71.11300000
H      -46.13410000     -30.09160000     -68.85160000
C      -48.63180000     -31.50130000     -70.92590000
C      -47.58030000     -33.15140000     -72.20530000
C      -48.85450000     -33.19630000     -72.66220000
S      -48.43680000     -30.20460000     -69.76920000
S      -49.93680000     -32.05230000     -71.84340000
H      -49.33060000     -33.83910000     -73.43710000
