40
Properties=species:S:1:pos:R:3 #=T CELL(abcABC):=T 1.889726e+02=T 90.00000=T Traj:=T positionsangstrom=T Step:=T 0=T Bead:=T pbc="F F F"
C      -42.65890000     -36.16250000     -71.31590000
C      -42.82120000     -35.32490000     -72.44190000
C      -42.37780000     -34.00540000     -72.36160000
C      -41.88710000     -33.52990000     -71.12000000
C      -41.82670000     -34.34720000     -70.01840000
C      -42.15590000     -35.70080000     -70.05590000
H      -42.84340000     -37.24070000     -71.40200000
H      -42.51760000     -33.35610000     -73.23640000
H      -41.46940000     -33.86960000     -69.02990000
H      -42.03440000     -36.38840000     -69.21960000
C      -41.65980000     -32.01830000     -70.97890000
H      -42.10980000     -31.45500000     -71.87630000
H      -40.69040000     -31.60550000     -70.92190000
C      -43.37660000     -35.74830000     -73.75480000
H      -43.34400000     -34.87860000     -74.42440000
H      -42.78620000     -36.57170000     -74.23630000
S      -42.40770000     -31.31100000     -69.42540000
S      -45.05400000     -36.56000000     -73.63540000
C      -44.18540000     -31.20380000     -69.68320000
H      -44.61680000     -30.68080000     -68.83050000
H      -44.32310000     -30.61570000     -70.52890000
C      -46.07700000     -35.48000000     -72.64050000
H      -45.66910000     -35.53490000     -71.60650000
H      -47.14240000     -35.82020000     -72.63950000
C      -46.10010000     -34.00720000     -73.13640000
H      -45.18360000     -33.47860000     -72.90070000
H      -46.19390000     -33.98870000     -74.20200000
C      -44.92670000     -32.55200000     -69.92870000
H      -44.78370000     -33.25100000     -69.08200000
H      -44.53780000     -33.20120000     -70.75850000
C      -46.39700000     -32.37670000     -70.01620000
C      -47.07710000     -31.89240000     -68.95150000
C      -47.20430000     -32.50110000     -71.28600000
H      -46.75610000     -31.70220000     -67.98520000
C      -48.52990000     -32.02730000     -71.00520000
C      -47.20800000     -33.22290000     -72.51190000
C      -48.42190000     -33.07620000     -73.20460000
S      -48.75180000     -31.58030000     -69.36160000
S      -49.62180000     -32.27110000     -72.27170000
H      -48.72960000     -33.31180000     -74.18390000
