40
Properties=species:S:1:pos:R:3 #=T CELL(abcABC):=T 1.889726e+02=T 90.00000=T Traj:=T positionsangstrom=T Step:=T 0=T Bead:=T pbc="F F F"
C      -46.26690000     -30.60210000     -72.86070000
C      -45.16680000     -30.34980000     -72.06540000
C      -45.28000000     -30.26060000     -70.68230000
C      -46.53120000     -30.45560000     -70.07120000
C      -47.69620000     -30.63140000     -70.87910000
C      -47.54510000     -30.74820000     -72.26870000
H      -46.27380000     -30.63050000     -73.98400000
H      -44.41100000     -30.14700000     -70.04880000
H      -48.61950000     -30.77060000     -70.35380000
H      -48.37380000     -31.25160000     -72.83500000
C      -46.57990000     -30.36250000     -68.51940000
H      -47.62840000     -30.51670000     -68.21950000
H      -46.29370000     -29.32530000     -68.19220000
C      -43.70740000     -30.25330000     -72.57150000
H      -43.52440000     -29.16030000     -72.79110000
H      -43.13310000     -30.65090000     -71.66470000
S      -45.42850000     -31.55670000     -67.71120000
S      -43.28240000     -31.12260000     -74.13870000
C      -46.01530000     -33.13250000     -68.36520000
H      -45.52880000     -33.86330000     -67.77690000
H      -47.09890000     -33.27330000     -68.26770000
C      -43.99810000     -32.90070000     -74.09030000
H      -43.24060000     -33.57890000     -74.51990000
H      -44.86770000     -33.03100000     -74.75920000
C      -44.36840000     -33.47210000     -72.74590000
H      -43.53360000     -33.28700000     -72.11570000
H      -45.21010000     -32.99400000     -72.20870000
C      -45.61770000     -33.49240000     -69.81770000
H      -44.55570000     -33.14460000     -69.98410000
H      -46.32600000     -33.00160000     -70.52840000
C      -45.62940000     -35.00260000     -70.16080000
C      -45.90250000     -36.03950000     -69.32340000
C      -45.19680000     -35.52940000     -71.46720000
H      -46.20690000     -36.00340000     -68.32930000
C      -45.33040000     -36.92680000     -71.55850000
C      -44.68240000     -34.93100000     -72.68080000
C      -44.53940000     -35.87970000     -73.69290000
S      -45.83550000     -37.69050000     -70.06580000
S      -44.87760000     -37.50770000     -73.18290000
H      -44.19080000     -35.79280000     -74.66350000
