40
Properties=species:S:1:pos:R:3 #=T CELL(abcABC):=T 1.889726e+02=T 90.00000=T Traj:=T positionsangstrom=T Step:=T 0=T Bead:=T pbc="F F F"
C      -45.17130000     -31.73200000     -74.55750000
C      -44.61090000     -31.71030000     -73.26730000
C      -45.47840000     -31.72970000     -72.17930000
C      -46.85110000     -31.42890000     -72.33170000
C      -47.36540000     -31.31380000     -73.64370000
C      -46.56590000     -31.47710000     -74.77850000
H      -44.58400000     -31.86910000     -75.50540000
H      -45.10500000     -31.97680000     -71.20530000
H      -48.47640000     -31.10930000     -73.74640000
H      -46.85600000     -31.30770000     -75.78900000
C      -47.77030000     -31.53550000     -71.15120000
H      -48.45540000     -30.73390000     -71.08180000
H      -47.32640000     -31.73060000     -70.18320000
C      -43.16930000     -32.12040000     -73.06660000
H      -42.49970000     -31.50230000     -73.66430000
H      -42.91330000     -32.06490000     -72.01460000
S      -48.90220000     -33.14070000     -71.47490000
S      -42.77330000     -33.77700000     -73.64090000
C      -47.76150000     -34.42750000     -72.00090000
H      -48.35300000     -35.03850000     -72.68230000
H      -46.91250000     -34.02810000     -72.50510000
C      -44.14260000     -34.94940000     -73.27290000
H      -44.18820000     -35.70780000     -74.09970000
H      -45.15700000     -34.46890000     -73.33330000
C      -43.85310000     -35.75460000     -71.99590000
H      -44.71760000     -36.39880000     -71.69180000
H      -43.03900000     -36.44810000     -72.12940000
C      -47.27400000     -35.28860000     -70.84810000
H      -46.75970000     -36.10990000     -71.31230000
H      -48.07930000     -35.71220000     -70.30150000
C      -46.28560000     -34.55600000     -69.92910000
C      -46.82430000     -33.69340000     -68.99940000
C      -44.80380000     -34.51810000     -69.89330000
H      -47.85380000     -33.60200000     -68.71430000
C      -44.34740000     -33.79980000     -68.77690000
C      -43.71810000     -35.00380000     -70.69870000
C      -42.50830000     -34.91250000     -70.07160000
S      -45.61910000     -33.03150000     -67.81650000
S      -42.59170000     -33.79460000     -68.69760000
H      -41.53520000     -35.10020000     -70.57310000
