40
Properties=species:S:1:pos:R:3 #=T CELL(abcABC):=T 1.889726e+02=T 90.00000=T Traj:=T positionsangstrom=T Step:=T 0=T Bead:=T pbc="F F F"
C      -47.13720000     -30.32910000     -72.70890000
C      -45.89710000     -29.95970000     -72.25560000
C      -45.69750000     -30.03360000     -70.87890000
C      -46.64370000     -30.44960000     -69.94740000
C      -47.91630000     -30.74890000     -70.49050000
C      -48.19030000     -30.65950000     -71.85650000
H      -47.45130000     -30.26080000     -73.78670000
H      -44.68200000     -29.89940000     -70.48910000
H      -48.72140000     -30.93420000     -69.74230000
H      -49.22910000     -30.74030000     -72.26740000
C      -46.42900000     -30.72970000     -68.48330000
H      -47.31190000     -31.23790000     -68.09640000
H      -46.32780000     -29.81300000     -67.90380000
C      -44.86350000     -29.64190000     -73.29290000
H      -45.15250000     -29.50880000     -74.39590000
H      -44.28380000     -28.75810000     -72.97260000
S      -44.82060000     -31.54930000     -68.08890000
S      -43.57170000     -30.99980000     -73.15960000
C      -45.11390000     -33.36630000     -68.39630000
H      -44.26820000     -33.84780000     -67.83150000
H      -46.13400000     -33.55520000     -67.98340000
C      -44.55420000     -32.46980000     -73.32520000
H      -45.00130000     -32.57670000     -74.26680000
H      -45.30670000     -32.48320000     -72.52460000
C      -43.69570000     -33.80230000     -73.12360000
H      -43.16670000     -33.93550000     -74.05970000
H      -42.90060000     -33.57850000     -72.43250000
C      -45.04250000     -33.66560000     -69.91340000
H      -44.06170000     -33.27040000     -70.19920000
H      -45.84100000     -33.13680000     -70.41060000
C      -45.13920000     -35.09490000     -70.31200000
C      -45.56170000     -36.10800000     -69.43520000
C      -44.87570000     -35.67830000     -71.60270000
H      -46.03990000     -35.81930000     -68.52880000
C      -45.28250000     -36.99330000     -71.73880000
C      -44.39280000     -35.12540000     -72.89510000
C      -44.36880000     -36.11080000     -73.82410000
S      -45.80910000     -37.68600000     -70.24680000
S      -44.91390000     -37.67470000     -73.31000000
H      -44.04640000     -36.08090000     -74.82450000
