40
Properties=species:S:1:pos:R:3 #=T CELL(abcABC):=T 1.889726e+02=T 90.00000=T Traj:=T positionsangstrom=T Step:=T 0=T Bead:=T pbc="F F F"
C      -42.75120000     -36.01320000     -71.29930000
C      -42.93190000     -35.18440000     -72.44660000
C      -42.53100000     -33.82880000     -72.34320000
C      -41.93100000     -33.33270000     -71.15730000
C      -41.84110000     -34.16500000     -70.05730000
C      -42.29100000     -35.49490000     -70.10390000
H      -43.17460000     -37.02380000     -71.45480000
H      -42.75050000     -33.18350000     -73.24970000
H      -41.49390000     -33.80580000     -69.08180000
H      -42.30400000     -36.15860000     -69.21050000
C      -41.55320000     -31.89170000     -71.00690000
H      -41.91190000     -31.46580000     -71.86100000
H      -40.47330000     -31.56010000     -70.78290000
C      -43.34630000     -35.75710000     -73.69300000
H      -43.46540000     -34.96830000     -74.46600000
H      -42.66500000     -36.48560000     -74.06430000
S      -42.36960000     -31.16440000     -69.42630000
S      -45.00420000     -36.58410000     -73.72140000
C      -44.27220000     -31.32950000     -69.87030000
H      -44.84300000     -30.69130000     -69.09360000
H      -44.31080000     -30.84860000     -70.86690000
C      -46.10160000     -35.33350000     -72.74400000
H      -45.89840000     -35.52600000     -71.71110000
H      -47.14850000     -35.59880000     -72.88490000
C      -46.00480000     -33.89370000     -73.17780000
H      -45.05910000     -33.41980000     -72.84140000
H      -46.21390000     -33.86340000     -74.27680000
C      -44.87000000     -32.71230000     -70.00910000
H      -44.57720000     -33.35100000     -69.19290000
H      -44.41830000     -33.09180000     -70.95460000
C      -46.37950000     -32.58310000     -69.98130000
C      -47.08680000     -32.25670000     -68.85760000
C      -47.28020000     -32.80310000     -71.14150000
H      -46.85710000     -32.01660000     -67.85940000
C      -48.56630000     -32.46870000     -70.81910000
C      -47.15600000     -33.19090000     -72.54570000
C      -48.24480000     -32.82600000     -73.28740000
S      -48.81020000     -31.86930000     -69.20980000
S      -49.54950000     -32.17650000     -72.25330000
H      -48.45850000     -32.93630000     -74.32270000
