40
Properties=species:S:1:pos:R:3 #=T CELL(abcABC):=T 1.889726e+02=T 90.00000=T Traj:=T positionsangstrom=T Step:=T 0=T Bead:=T pbc="F F F"
C      -47.60990000     -30.71670000     -72.38150000
C      -46.27050000     -30.32830000     -72.21870000
C      -45.79190000     -30.23150000     -70.86900000
C      -46.61080000     -30.46160000     -69.76940000
C      -47.89340000     -30.90550000     -70.03350000
C      -48.41930000     -30.97430000     -71.31570000
H      -47.95980000     -30.82510000     -73.41910000
H      -44.76250000     -29.78880000     -70.78890000
H      -48.54270000     -31.22390000     -69.14370000
H      -49.51950000     -31.17570000     -71.39160000
C      -46.08820000     -30.45410000     -68.34620000
H      -46.84610000     -30.87230000     -67.68390000
H      -45.83930000     -29.43450000     -68.02060000
C      -45.36720000     -30.00260000     -73.37830000
H      -45.96870000     -29.99030000     -74.31650000
H      -44.88780000     -29.05160000     -73.19630000
S      -44.45140000     -31.32450000     -68.16560000
S      -43.81970000     -31.02610000     -73.52770000
C      -44.74750000     -33.07530000     -68.57740000
H      -43.91060000     -33.64530000     -68.26210000
H      -45.64120000     -33.41790000     -68.09670000
C      -44.55340000     -32.86110000     -73.55090000
H      -44.73120000     -33.10710000     -74.54970000
H      -45.44450000     -32.94270000     -72.86500000
C      -43.47260000     -33.84210000     -73.08190000
H      -42.67770000     -33.86600000     -73.84780000
H      -42.87820000     -33.53100000     -72.23040000
C      -44.80210000     -33.46450000     -70.07330000
H      -43.81300000     -33.25610000     -70.46250000
H      -45.48000000     -32.85070000     -70.63630000
C      -45.21230000     -34.92930000     -70.40000000
C      -45.90980000     -35.77070000     -69.53670000
C      -44.81050000     -35.61220000     -71.58190000
H      -45.99030000     -35.64860000     -68.51700000
C      -45.28890000     -36.91320000     -71.78100000
C      -44.07690000     -35.23330000     -72.78670000
C      -44.00280000     -36.19030000     -73.71520000
S      -46.04920000     -37.47560000     -70.31340000
S      -44.79520000     -37.66890000     -73.22310000
H      -43.52150000     -36.08760000     -74.68440000
