40
Properties=species:S:1:pos:R:3 #=T CELL(abcABC):=T 1.889726e+02=T 90.00000=T Traj:=T positionsangstrom=T Step:=T 0=T Bead:=T pbc="F F F"
C      -47.74970000     -30.85350000     -72.27550000
C      -46.38170000     -30.47340000     -72.18690000
C      -45.75650000     -30.45200000     -70.94960000
C      -46.49990000     -30.73650000     -69.76180000
C      -47.82910000     -31.15170000     -69.89730000
C      -48.48690000     -31.17030000     -71.10110000
H      -48.28600000     -30.84770000     -73.19740000
H      -44.70880000     -30.31070000     -70.88520000
H      -48.41650000     -31.21620000     -69.03460000
H      -49.49120000     -31.55590000     -71.19560000
C      -45.92500000     -30.52840000     -68.36700000
H      -46.60660000     -30.89270000     -67.58080000
H      -45.80100000     -29.46430000     -68.12380000
C      -45.70320000     -30.10820000     -73.41540000
H      -46.40890000     -30.00960000     -74.27260000
H      -45.37490000     -29.01600000     -73.33450000
S      -44.27820000     -31.35400000     -68.09530000
S      -44.22090000     -31.07470000     -73.90960000
C      -44.75450000     -33.12750000     -68.50700000
H      -44.10690000     -33.74220000     -67.91050000
H      -45.70920000     -33.39140000     -68.12940000
C      -44.70530000     -32.85350000     -73.48860000
H      -45.26770000     -33.18840000     -74.36370000
H      -45.40340000     -32.84430000     -72.69350000
C      -43.50210000     -33.70190000     -73.27770000
H      -43.06330000     -33.89200000     -74.24880000
H      -42.81820000     -33.18680000     -72.57620000
C      -44.61730000     -33.39110000     -70.04590000
H      -43.55050000     -33.30410000     -70.27240000
H      -45.06320000     -32.56620000     -70.57020000
C      -45.12770000     -34.78440000     -70.45090000
C      -45.96770000     -35.50730000     -69.62450000
C      -44.65730000     -35.53750000     -71.61290000
H      -46.61810000     -35.02390000     -68.89970000
C      -45.03890000     -36.85860000     -71.60430000
C      -44.01270000     -35.15900000     -72.84280000
C      -43.82660000     -36.17330000     -73.73990000
S      -46.13370000     -37.18090000     -70.22230000
S      -44.57440000     -37.66810000     -73.09860000
H      -43.40090000     -36.00980000     -74.72310000
