40
Properties=species:S:1:pos:R:3 #=T CELL(abcABC):=T 1.889726e+02=T 90.00000=T Traj:=T positionsangstrom=T Step:=T 0=T Bead:=T pbc="F F F"
C      -47.84750000     -31.13550000     -71.87420000
C      -46.63980000     -30.47960000     -72.00030000
C      -45.83860000     -30.26650000     -70.83540000
C      -46.29970000     -30.76390000     -69.53750000
C      -47.58220000     -31.31410000     -69.44190000
C      -48.39710000     -31.47010000     -70.58770000
H      -48.47200000     -31.36720000     -72.78280000
H      -44.88600000     -29.74770000     -70.92570000
H      -47.97890000     -31.69330000     -68.46470000
H      -49.31760000     -32.00240000     -70.54970000
C      -45.47790000     -30.66790000     -68.30210000
H      -45.90290000     -31.30750000     -67.51960000
H      -45.54680000     -29.69220000     -67.85850000
C      -46.12460000     -30.11330000     -73.35100000
H      -46.95660000     -30.11260000     -74.04900000
H      -45.72090000     -29.14640000     -73.34350000
S      -43.70790000     -31.11660000     -68.53630000
S      -44.85470000     -31.21760000     -74.15440000
C      -43.87760000     -32.87470000     -68.93690000
H      -42.98880000     -33.40870000     -68.52660000
H      -44.80590000     -33.21250000     -68.41710000
C      -45.48830000     -32.95650000     -73.82090000
H      -46.12250000     -33.25070000     -74.67040000
H      -46.10730000     -32.97710000     -72.94840000
C      -44.20490000     -33.83740000     -73.76580000
H      -43.79760000     -33.93820000     -74.76790000
H      -43.47930000     -33.33370000     -73.18720000
C      -44.08660000     -33.26980000     -70.38660000
H      -43.14550000     -33.21120000     -70.98770000
H      -44.82490000     -32.61690000     -70.90040000
C      -44.65400000     -34.66170000     -70.46500000
C      -45.03320000     -35.40110000     -69.36180000
C      -44.82630000     -35.40310000     -71.72720000
H      -44.98390000     -34.99520000     -68.36530000
C      -45.23440000     -36.67810000     -71.48990000
C      -44.42460000     -35.21880000     -73.12980000
C      -44.46660000     -36.39780000     -73.82840000
S      -45.59990000     -37.02420000     -69.82090000
S      -45.07960000     -37.73480000     -72.89330000
H      -44.40710000     -36.24490000     -74.89030000
