40
Properties=species:S:1:pos:R:3 #=T CELL(abcABC):=T 1.889726e+02=T 90.00000=T Traj:=T positionsangstrom=T Step:=T 0=T Bead:=T pbc="F F F"
C      -47.73080000     -31.45170000     -71.94130000
C      -46.61250000     -30.57120000     -72.12920000
C      -45.95490000     -30.02880000     -71.01040000
C      -46.37200000     -30.42820000     -69.70550000
C      -47.51680000     -31.25980000     -69.56200000
C      -48.16590000     -31.77100000     -70.66860000
H      -48.27730000     -31.77420000     -72.85690000
H      -45.10120000     -29.39600000     -71.11660000
H      -47.85070000     -31.48520000     -68.62770000
H      -49.03200000     -32.41200000     -70.43990000
C      -45.55930000     -30.09650000     -68.55330000
H      -46.07920000     -30.13460000     -67.61370000
H      -45.15330000     -29.11810000     -68.66380000
C      -46.20350000     -30.28270000     -73.52420000
H      -46.89300000     -30.56410000     -74.21890000
H      -45.96990000     -29.22100000     -73.60390000
S      -43.98110000     -31.12890000     -68.43570000
S      -44.46690000     -31.02300000     -73.76000000
C      -44.60140000     -32.88540000     -68.74150000
H      -43.91960000     -33.44410000     -68.10990000
H      -45.66360000     -32.84190000     -68.57080000
C      -44.99750000     -32.81740000     -73.60120000
H      -45.50370000     -33.15420000     -74.49240000
H      -45.74680000     -32.93780000     -72.78850000
C      -43.79430000     -33.78170000     -73.41260000
H      -43.20200000     -33.84430000     -74.27490000
H      -43.11260000     -33.47470000     -72.62420000
C      -44.47370000     -33.40080000     -70.22990000
H      -43.40140000     -33.36810000     -70.58130000
H      -45.05640000     -32.76480000     -70.92320000
C      -44.86130000     -34.82310000     -70.42010000
C      -45.17570000     -35.67980000     -69.40600000
C      -44.79360000     -35.51020000     -71.70630000
H      -45.28410000     -35.46370000     -68.36920000
C      -45.27080000     -36.82680000     -71.60790000
C      -44.34010000     -35.12810000     -73.04810000
C      -44.38100000     -36.22320000     -73.89700000
S      -45.65320000     -37.23190000     -69.98030000
S      -45.03740000     -37.70570000     -73.11970000
H      -43.89880000     -36.30020000     -74.90860000
