40
Properties=species:S:1:pos:R:3 #=T CELL(abcABC):=T 1.889726e+02=T 90.00000=T Traj:=T positionsangstrom=T Step:=T 0=T Bead:=T pbc="F F F"
C      -47.72600000     -31.43390000     -72.00410000
C      -46.68780000     -30.49330000     -72.21420000
C      -46.11000000     -29.88830000     -71.08330000
C      -46.40860000     -30.35880000     -69.82350000
C      -47.46640000     -31.29050000     -69.63290000
C      -48.14440000     -31.79700000     -70.71990000
H      -48.14740000     -31.96600000     -72.79910000
H      -45.23530000     -29.20850000     -71.14380000
H      -47.62890000     -31.66560000     -68.64160000
H      -48.81010000     -32.63790000     -70.55230000
C      -45.60550000     -29.92840000     -68.66980000
H      -46.24560000     -30.01690000     -67.73200000
H      -45.14290000     -28.91850000     -68.72270000
C      -46.08940000     -30.29610000     -73.59630000
H      -46.79600000     -30.68390000     -74.41590000
H      -45.92650000     -29.25560000     -73.79960000
S      -44.13490000     -31.23190000     -68.43590000
S      -44.39770000     -30.99790000     -73.66210000
C      -44.75930000     -33.00210000     -68.59890000
H      -44.24670000     -33.66680000     -67.85870000
H      -45.81550000     -33.04690000     -68.30330000
C      -44.85330000     -32.79810000     -73.53410000
H      -45.48310000     -33.12340000     -74.41820000
H      -45.50340000     -32.82990000     -72.64590000
C      -43.63850000     -33.72640000     -73.29450000
H      -43.00340000     -33.72610000     -74.23790000
H      -43.03030000     -33.25000000     -72.47980000
C      -44.46900000     -33.53930000     -70.03230000
H      -43.39710000     -33.33780000     -70.23540000
H      -45.03860000     -32.95890000     -70.76190000
C      -44.87100000     -34.93150000     -70.27050000
C      -45.40640000     -35.78080000     -69.35570000
C      -44.70420000     -35.44960000     -71.61720000
H      -45.79790000     -35.51540000     -68.37170000
C      -45.14550000     -36.79020000     -71.61390000
C      -44.09030000     -35.12460000     -72.90920000
C      -44.22590000     -36.12180000     -73.86400000
S      -45.73160000     -37.37410000     -70.11800000
S      -45.02100000     -37.55630000     -73.22710000
H      -44.04600000     -36.21940000     -74.91920000
