40
Properties=species:S:1:pos:R:3 #=T CELL(abcABC):=T 1.889726e+02=T 90.00000=T Traj:=T positionsangstrom=T Step:=T 0=T Bead:=T pbc="F F F"
C      -43.62190000     -36.30430000     -69.37510000
C      -42.83280000     -35.08330000     -69.41230000
C      -42.22360000     -34.74240000     -70.57000000
C      -42.49590000     -35.47620000     -71.74130000
C      -43.37340000     -36.55410000     -71.74860000
C      -43.86430000     -37.04350000     -70.50800000
H      -44.14510000     -36.68970000     -68.50330000
H      -41.64010000     -33.79600000     -70.69470000
H      -43.57150000     -37.05010000     -72.69230000
H      -44.37310000     -38.07300000     -70.38540000
C      -41.98650000     -34.89940000     -73.07410000
H      -41.64190000     -35.69080000     -73.82170000
H      -41.22070000     -34.19330000     -72.83300000
C      -42.80630000     -34.38130000     -68.11470000
H      -43.39200000     -34.87560000     -67.36470000
H      -41.81420000     -34.27330000     -67.70380000
S      -43.33270000     -34.06720000     -74.11010000
S      -43.54220000     -32.64490000     -68.40800000
C      -43.79500000     -32.44230000     -73.51710000
H      -42.85150000     -31.93010000     -73.25720000
H      -44.25940000     -32.04410000     -74.47310000
C      -45.31460000     -32.88560000     -68.83810000
H      -45.89530000     -33.06990000     -67.99670000
H      -45.45040000     -33.67100000     -69.58000000
C      -45.87850000     -31.56450000     -69.45320000
H      -46.10760000     -30.98550000     -68.55380000
H      -45.09980000     -31.00520000     -70.02020000
C      -44.67580000     -32.29120000     -72.38640000
H      -44.41160000     -31.37780000     -71.88360000
H      -44.48310000     -33.13910000     -71.60850000
C      -46.15970000     -32.33320000     -72.57500000
C      -46.69350000     -32.75980000     -73.79670000
C      -47.19390000     -32.05050000     -71.62080000
H      -46.14750000     -33.21970000     -74.54570000
C      -48.46500000     -32.19040000     -72.08670000
C      -47.18490000     -31.75230000     -70.21880000
C      -48.43310000     -31.57150000     -69.71080000
S      -48.48900000     -32.75960000     -73.75960000
S      -49.69690000     -31.83000000     -70.93060000
H      -48.75020000     -31.55550000     -68.65820000
