40
Properties=species:S:1:pos:R:3 #=T CELL(abcABC):=T 1.889726e+02=T 90.00000=T Traj:=T positionsangstrom=T Step:=T 0=T Bead:=T pbc="F F F"
C      -45.19450000     -31.51520000     -74.57540000
C      -44.77620000     -31.82780000     -73.25240000
C      -45.87010000     -31.92250000     -72.29500000
C      -47.23750000     -31.72780000     -72.59950000
C      -47.50860000     -31.35600000     -73.88520000
C      -46.51420000     -31.25290000     -74.84140000
H      -44.41830000     -31.49670000     -75.32460000
H      -45.58120000     -32.07740000     -71.26760000
H      -48.44690000     -30.92380000     -74.15820000
H      -46.86040000     -30.97780000     -75.85520000
C      -48.28780000     -31.74810000     -71.54670000
H      -49.17550000     -31.20360000     -71.87300000
H      -47.82080000     -31.34760000     -70.68140000
C      -43.35250000     -31.94580000     -72.88650000
H      -42.62810000     -31.17970000     -73.13910000
H      -43.13150000     -31.94040000     -71.80960000
S      -48.97250000     -33.44440000     -71.26530000
S      -42.75300000     -33.53410000     -73.57810000
C      -47.80310000     -34.66280000     -71.93130000
H      -48.38610000     -35.44450000     -72.44480000
H      -47.09100000     -34.24260000     -72.60910000
C      -43.98960000     -34.85120000     -73.11150000
H      -44.08100000     -35.58000000     -73.94410000
H      -44.98220000     -34.34150000     -73.17750000
C      -43.76320000     -35.72140000     -71.88910000
H      -44.56010000     -36.38930000     -71.66760000
H      -42.82080000     -36.35830000     -72.02000000
C      -47.01380000     -35.45040000     -70.79400000
H      -46.52090000     -36.29180000     -71.23700000
H      -47.86150000     -35.71290000     -70.21140000
C      -46.14100000     -34.60510000     -69.89070000
C      -46.70940000     -33.91800000     -68.83470000
C      -44.67780000     -34.49710000     -69.90410000
H      -47.75840000     -33.73010000     -68.64030000
C      -44.23610000     -33.71150000     -68.86920000
C      -43.51720000     -34.94640000     -70.66760000
C      -42.30440000     -34.62010000     -70.19020000
S      -45.48600000     -33.07560000     -67.83880000
S      -42.50530000     -33.58840000     -68.75770000
H      -41.36610000     -34.97850000     -70.53220000
