40
Properties=species:S:1:pos:R:3 #=T CELL(abcABC):=T 1.889726e+02=T 90.00000=T Traj:=T positionsangstrom=T Step:=T 0=T Bead:=T pbc="F F F"
C      -47.57520000     -30.81230000     -71.48410000
C      -46.41050000     -30.39880000     -72.06390000
C      -45.36760000     -29.88160000     -71.21230000
C      -45.46020000     -30.08700000     -69.87530000
C      -46.60030000     -30.70570000     -69.34590000
C      -47.67680000     -30.99380000     -70.13630000
H      -48.36740000     -31.04930000     -72.12470000
H      -44.55070000     -29.41300000     -71.67220000
H      -46.64280000     -30.70200000     -68.25280000
H      -48.73560000     -31.28880000     -69.78090000
C      -44.31490000     -29.83440000     -69.00620000
H      -44.49430000     -29.53780000     -67.98300000
H      -43.61930000     -29.18820000     -69.44940000
C      -46.21590000     -30.19340000     -73.53950000
H      -47.14550000     -29.99640000     -74.10190000
H      -45.64050000     -29.23930000     -73.60690000
S      -43.06940000     -31.35720000     -68.96110000
S      -45.24260000     -31.41080000     -74.45480000
C      -44.04610000     -32.95580000     -68.82610000
H      -43.32960000     -33.58570000     -68.27430000
H      -44.91540000     -32.79360000     -68.11360000
C      -45.74380000     -32.95870000     -73.54610000
H      -46.57500000     -33.39410000     -74.04240000
H      -45.99820000     -32.69470000     -72.49980000
C      -44.65520000     -33.99800000     -73.61490000
H      -44.26060000     -34.11220000     -74.69420000
H      -43.69380000     -33.68570000     -73.02990000
C      -44.39570000     -33.39710000     -70.27690000
H      -43.49820000     -33.08290000     -70.90520000
H      -45.23630000     -32.84780000     -70.69990000
C      -44.72500000     -34.94040000     -70.33200000
C      -44.86080000     -35.74700000     -69.19300000
C      -45.06350000     -35.61150000     -71.55830000
H      -44.61000000     -35.46290000     -68.17190000
C      -45.40700000     -36.96210000     -71.30540000
C      -45.11340000     -35.31130000     -72.98900000
C      -45.72330000     -36.30910000     -73.65290000
S      -45.38000000     -37.38670000     -69.61660000
S      -46.04620000     -37.74150000     -72.73790000
H      -46.03560000     -36.22990000     -74.66480000
