40
Properties=species:S:1:pos:R:3 #=T CELL(abcABC):=T 1.889726e+02=T 90.00000=T Traj:=T positionsangstrom=T Step:=T 0=T Bead:=T pbc="F F F"
C      -47.95570000     -30.98920000     -71.86970000
C      -46.67800000     -30.44550000     -72.01550000
C      -45.79690000     -30.46250000     -70.90760000
C      -46.22450000     -30.89180000     -69.63880000
C      -47.58540000     -31.33400000     -69.47320000
C      -48.38410000     -31.38680000     -70.61080000
H      -48.60290000     -30.95070000     -72.71510000
H      -44.75160000     -30.07810000     -71.11520000
H      -47.98980000     -31.59340000     -68.46600000
H      -49.41530000     -31.71630000     -70.58420000
C      -45.30490000     -30.62780000     -68.42330000
H      -45.65040000     -31.13900000     -67.50040000
H      -45.28870000     -29.54600000     -68.26840000
C      -46.16110000     -29.95980000     -73.36750000
H      -46.88910000     -29.64240000     -74.13580000
H      -45.51280000     -29.10040000     -73.06680000
S      -43.54890000     -31.02050000     -68.74060000
S      -44.96570000     -31.26140000     -74.23560000
C      -43.53110000     -32.89870000     -68.84350000
H      -42.43770000     -33.15900000     -68.70650000
H      -44.16760000     -33.26110000     -68.05880000
C      -45.37550000     -32.89750000     -73.47350000
H      -46.23640000     -33.36830000     -74.04870000
H      -45.62310000     -32.79950000     -72.41440000
C      -44.13350000     -33.81190000     -73.53890000
H      -43.74040000     -33.80720000     -74.58730000
H      -43.35300000     -33.41260000     -72.93620000
C      -44.00170000     -33.35900000     -70.22140000
H      -43.09210000     -33.30440000     -70.82270000
H      -44.71180000     -32.64080000     -70.62630000
C      -44.62370000     -34.77120000     -70.33080000
C      -45.07650000     -35.56600000     -69.28760000
C      -44.81590000     -35.45510000     -71.61320000
H      -45.09220000     -35.28730000     -68.18480000
C      -45.29930000     -36.72840000     -71.46390000
C      -44.47950000     -35.20640000     -73.00370000
C      -44.69270000     -36.25600000     -73.88160000
S      -45.62870000     -37.15380000     -69.81220000
S      -45.32240000     -37.64590000     -73.00900000
H      -44.34940000     -36.18160000     -74.89440000
