40
Properties=species:S:1:pos:R:3 #=T CELL(abcABC):=T 1.889726e+02=T 90.00000=T Traj:=T positionsangstrom=T Step:=T 0=T Bead:=T pbc="F F F"
C      -47.61060000     -30.73130000     -71.52010000
C      -46.39540000     -30.32760000     -72.07560000
C      -45.26180000     -30.05910000     -71.27940000
C      -45.37600000     -30.20870000     -69.88460000
C      -46.58540000     -30.66520000     -69.39530000
C      -47.72370000     -30.97530000     -70.16060000
H      -48.46460000     -30.84250000     -72.20980000
H      -44.29070000     -29.72190000     -71.62510000
H      -46.58140000     -30.95030000     -68.32480000
H      -48.62310000     -31.35630000     -69.71920000
C      -44.20900000     -30.01860000     -68.96500000
H      -44.66070000     -29.83720000     -67.92860000
H      -43.63600000     -29.06530000     -69.12820000
C      -46.39990000     -30.08950000     -73.56910000
H      -47.32580000     -30.12020000     -74.13990000
H      -45.95400000     -29.09550000     -73.72060000
S      -42.90580000     -31.40270000     -68.97300000
S      -45.31240000     -31.41500000     -74.44430000
C      -43.96280000     -32.85980000     -68.96420000
H      -43.47220000     -33.58310000     -68.28340000
H      -44.85190000     -32.48340000     -68.51870000
C      -45.81100000     -32.93980000     -73.51910000
H      -46.79520000     -33.28580000     -73.83970000
H      -45.99020000     -32.60610000     -72.46890000
C      -44.70930000     -34.05730000     -73.64990000
H      -44.57120000     -34.19390000     -74.69120000
H      -43.74470000     -33.67820000     -73.32930000
C      -44.15130000     -33.49940000     -70.33780000
H      -43.20050000     -33.44250000     -70.87790000
H      -44.78160000     -32.77940000     -70.85890000
C      -44.73740000     -34.87420000     -70.36390000
C      -45.06180000     -35.57400000     -69.17280000
C      -44.93520000     -35.62780000     -71.56680000
H      -44.83800000     -35.28380000     -68.18150000
C      -45.46930000     -36.89420000     -71.24790000
C      -45.03360000     -35.36280000     -73.00810000
C      -45.53550000     -36.42150000     -73.67670000
S      -45.61800000     -37.24530000     -69.54160000
S      -46.04830000     -37.78610000     -72.64530000
H      -45.51560000     -36.42420000     -74.75590000
