40
Properties=species:S:1:pos:R:3 #=T CELL(abcABC):=T 1.889726e+02=T 90.00000=T Traj:=T positionsangstrom=T Step:=T 0=T Bead:=T pbc="F F F"
C      -45.17730000     -31.38100000     -74.46160000
C      -44.90090000     -31.77790000     -73.14560000
C      -46.02200000     -31.90500000     -72.25660000
C      -47.36500000     -31.76750000     -72.67750000
C      -47.57070000     -31.30210000     -73.97060000
C      -46.49600000     -31.05660000     -74.80200000
H      -44.34720000     -31.20150000     -75.08350000
H      -45.72610000     -32.20030000     -71.25770000
H      -48.55220000     -31.30950000     -74.37050000
H      -46.78180000     -30.60370000     -75.72420000
C      -48.46060000     -31.87040000     -71.59170000
H      -49.36950000     -31.31990000     -71.72230000
H      -48.10220000     -31.46280000     -70.56210000
C      -43.50870000     -32.17240000     -72.63100000
H      -42.76210000     -31.34440000     -72.75490000
H      -43.68190000     -32.52970000     -71.66880000
S      -49.06540000     -33.63530000     -71.34910000
S      -42.67970000     -33.52770000     -73.54520000
C      -47.67990000     -34.69570000     -71.85150000
H      -48.14910000     -35.31300000     -72.66620000
H      -47.04360000     -34.06330000     -72.43330000
C      -43.83540000     -34.96530000     -73.36360000
H      -43.70490000     -35.64680000     -74.19330000
H      -44.81640000     -34.51480000     -73.32090000
C      -43.63860000     -35.62100000     -72.00930000
H      -44.26240000     -36.52560000     -71.91110000
H      -42.65030000     -36.01460000     -72.07690000
C      -46.88670000     -35.46390000     -70.78430000
H      -46.18210000     -36.17740000     -71.21260000
H      -47.44360000     -36.10580000     -70.08030000
C      -46.06680000     -34.57970000     -69.83800000
C      -46.67720000     -33.89600000     -68.80160000
C      -44.65290000     -34.47310000     -69.84280000
H      -47.72440000     -33.82530000     -68.56550000
C      -44.18150000     -33.73340000     -68.76280000
C      -43.54990000     -34.78240000     -70.77420000
C      -42.34800000     -34.44880000     -70.22670000
S      -45.46350000     -33.09480000     -67.79510000
S      -42.48800000     -33.51620000     -68.82550000
H      -41.39300000     -34.49410000     -70.67130000
