40
Properties=species:S:1:pos:R:3 #=T CELL(abcABC):=T 1.889726e+02=T 90.00000=T Traj:=T positionsangstrom=T Step:=T 0=T Bead:=T pbc="F F F"
C      -47.19540000     -29.98430000     -71.20740000
C      -46.08790000     -30.09730000     -72.05100000
C      -44.81930000     -30.17060000     -71.40930000
C      -44.65420000     -30.47840000     -70.04280000
C      -45.82980000     -30.45460000     -69.26310000
C      -47.05280000     -30.16510000     -69.87380000
H      -48.09170000     -29.69410000     -71.70680000
H      -43.94010000     -30.08080000     -71.99500000
H      -45.76190000     -30.62380000     -68.18370000
H      -47.92080000     -30.15460000     -69.20740000
C      -43.27420000     -30.55680000     -69.35550000
H      -43.22480000     -30.88180000     -68.36980000
H      -42.73520000     -29.59480000     -69.47310000
C      -46.23080000     -30.01170000     -73.54950000
H      -47.30980000     -30.16030000     -73.79810000
H      -45.82090000     -29.11740000     -73.99310000
S      -42.06970000     -31.84590000     -70.10700000
S      -45.26320000     -31.52580000     -74.21570000
C      -42.89260000     -33.42420000     -69.64000000
H      -42.12460000     -34.18360000     -69.53000000
H      -43.41910000     -33.30450000     -68.76740000
C      -46.28910000     -32.88010000     -73.41300000
H      -47.33330000     -32.86370000     -73.72620000
H      -46.34040000     -32.62670000     -72.35400000
C      -45.56880000     -34.22440000     -73.72400000
H      -45.88890000     -34.53400000     -74.67790000
H      -44.53070000     -34.04070000     -73.54070000
C      -43.75990000     -33.92930000     -70.86330000
H      -43.09000000     -33.97700000     -71.71910000
H      -44.45820000     -33.16740000     -71.17930000
C      -44.53220000     -35.14040000     -70.51000000
C      -44.53600000     -35.77850000     -69.31390000
C      -45.48480000     -35.68620000     -71.44910000
H      -43.99470000     -35.48840000     -68.41570000
C      -46.09850000     -36.85170000     -70.99560000
C      -46.07280000     -35.29800000     -72.75130000
C      -47.07200000     -36.13030000     -73.17270000
S      -45.73120000     -37.00920000     -69.21940000
S      -47.50360000     -37.38550000     -71.91150000
H      -47.66300000     -35.98580000     -74.03350000
