40
Properties=species:S:1:pos:R:3 #=T CELL(abcABC):=T 1.889726e+02=T 90.00000=T Traj:=T positionsangstrom=T Step:=T 0=T Bead:=T pbc="F F F"
C      -47.03930000     -30.74230000     -73.70830000
C      -46.00460000     -31.06390000     -72.79670000
C      -45.64950000     -32.45990000     -72.77610000
C      -46.25970000     -33.37840000     -73.64580000
C      -47.37670000     -32.98210000     -74.40220000
C      -47.75210000     -31.69940000     -74.42470000
H      -47.34010000     -29.76550000     -73.97650000
H      -44.78510000     -32.80030000     -72.20740000
H      -47.89820000     -33.68410000     -75.08390000
H      -48.60460000     -31.28140000     -74.92570000
C      -45.81050000     -34.80790000     -73.75010000
H      -44.79450000     -34.98670000     -73.41480000
H      -45.78960000     -35.19640000     -74.81760000
C      -45.58810000     -30.03840000     -71.82240000
H      -44.61760000     -30.31280000     -71.49740000
H      -45.60160000     -29.08370000     -72.33570000
S      -46.83160000     -36.08160000     -72.80060000
S      -46.60510000     -29.97720000     -70.31070000
C      -47.32360000     -35.12360000     -71.15530000
H      -47.11750000     -34.07980000     -71.34980000
H      -48.37090000     -35.21140000     -71.06210000
C      -46.84860000     -31.79790000     -69.80180000
H      -46.81280000     -32.39350000     -70.65440000
H      -47.82090000     -31.65500000     -69.37970000
C      -45.85040000     -32.28670000     -68.74140000
H      -45.74910000     -31.38700000     -68.11680000
H      -46.48320000     -32.96050000     -68.08260000
C      -46.55430000     -35.60070000     -69.90570000
H      -46.79620000     -36.68570000     -69.76870000
H      -46.98550000     -34.94770000     -69.09520000
C      -45.03530000     -35.53250000     -69.99350000
C      -44.18930000     -36.52330000     -70.41990000
C      -44.29820000     -34.22870000     -69.85450000
H      -44.58790000     -37.49840000     -70.61110000
C      -42.96510000     -34.34980000     -70.35080000
C      -44.57290000     -32.85020000     -69.25620000
C      -43.40060000     -32.08880000     -69.33970000
S      -42.53820000     -36.00330000     -70.75230000
S      -42.07050000     -32.89250000     -70.23400000
H      -43.35040000     -31.02100000     -69.00960000
