40
Properties=species:S:1:pos:R:3 #=T CELL(abcABC):=T 1.889726e+02=T 90.00000=T Traj:=T positionsangstrom=T Step:=T 0=T Bead:=T pbc="F F F"
C      -47.19510000     -31.06720000     -73.82770000
C      -46.16120000     -31.32010000     -72.93210000
C      -45.76280000     -32.63660000     -72.85190000
C      -46.45410000     -33.77000000     -73.47060000
C      -47.38590000     -33.42700000     -74.46320000
C      -47.78620000     -32.06640000     -74.69600000
H      -47.63710000     -30.02640000     -73.80440000
H      -44.89400000     -32.86710000     -72.28350000
H      -47.98290000     -34.19490000     -74.85520000
H      -48.64450000     -31.78890000     -75.38370000
C      -45.94200000     -35.11150000     -73.42550000
H      -44.97250000     -35.20200000     -72.88380000
H      -45.83190000     -35.66210000     -74.37280000
C      -45.50170000     -30.30640000     -72.04550000
H      -44.59710000     -30.86280000     -71.74930000
H      -45.18640000     -29.38920000     -72.44410000
S      -47.06480000     -36.27260000     -72.45570000
S      -46.49220000     -29.96640000     -70.51760000
C      -47.46520000     -35.08640000     -70.97890000
H      -47.34550000     -34.09910000     -71.33700000
H      -48.48570000     -35.35370000     -70.67940000
C      -46.64600000     -31.56580000     -69.69780000
H      -46.64370000     -32.37150000     -70.45560000
H      -47.63090000     -31.51910000     -69.16980000
C      -45.55830000     -31.94180000     -68.69940000
H      -45.20130000     -31.03360000     -68.17580000
H      -45.93700000     -32.61840000     -67.90320000
C      -46.52620000     -35.29080000     -69.74550000
H      -46.71630000     -36.31750000     -69.34140000
H      -46.78850000     -34.47320000     -69.02100000
C      -45.03200000     -35.13260000     -70.05650000
C      -44.33700000     -36.22030000     -70.52760000
C      -44.20350000     -33.96670000     -69.91190000
H      -44.72630000     -37.18780000     -70.96420000
C      -42.89130000     -34.21090000     -70.30640000
C      -44.39560000     -32.65140000     -69.36600000
C      -43.20750000     -31.98040000     -69.28130000
S      -42.63040000     -35.78280000     -71.01340000
S      -41.92330000     -32.82810000     -70.10870000
H      -43.00680000     -30.96150000     -68.98360000
