40
Properties=species:S:1:pos:R:3 #=T CELL(abcABC):=T 1.889726e+02=T 90.00000=T Traj:=T positionsangstrom=T Step:=T 0=T Bead:=T pbc="F F F"
C      -47.22140000     -30.64550000     -73.17490000
C      -46.13700000     -31.12750000     -72.43380000
C      -45.64010000     -32.38780000     -72.67270000
C      -46.16440000     -33.26020000     -73.59860000
C      -47.20340000     -32.76330000     -74.40310000
C      -47.64070000     -31.39580000     -74.32070000
H      -47.58340000     -29.60780000     -72.99140000
H      -44.79940000     -32.67620000     -72.08750000
H      -47.57280000     -33.44410000     -75.23400000
H      -48.37620000     -31.00760000     -74.96470000
C      -45.71780000     -34.66880000     -73.63780000
H      -44.89620000     -34.80440000     -73.02700000
H      -45.50600000     -34.93800000     -74.66010000
C      -45.44680000     -30.25110000     -71.42570000
H      -44.46180000     -30.58710000     -71.19990000
H      -45.40610000     -29.23150000     -71.70640000
S      -47.11700000     -35.76690000     -73.06020000
S      -46.35680000     -30.23100000     -69.81460000
C      -47.34340000     -35.38590000     -71.25880000
H      -47.23230000     -34.32680000     -71.04700000
H      -48.35000000     -35.69460000     -70.99490000
C      -47.00660000     -32.00980000     -69.63450000
H      -47.13970000     -32.37970000     -70.62310000
H      -48.02050000     -31.72880000     -69.25570000
C      -46.15450000     -32.88140000     -68.76400000
H      -46.05140000     -32.41360000     -67.79890000
H      -46.67980000     -33.83990000     -68.70630000
C      -46.30630000     -36.05660000     -70.31950000
H      -46.32130000     -37.16490000     -70.35480000
H      -46.51540000     -35.70640000     -69.31070000
C      -44.89400000     -35.59880000     -70.59370000
C      -43.94280000     -36.34190000     -71.26250000
C      -44.28590000     -34.33760000     -70.07990000
H      -44.08080000     -37.32000000     -71.78370000
C      -42.94390000     -34.29740000     -70.31450000
C      -44.77670000     -33.10800000     -69.39800000
C      -43.74930000     -32.20380000     -69.27950000
S      -42.33900000     -35.69370000     -71.19840000
S      -42.23830000     -32.72730000     -69.89160000
H      -43.65750000     -31.22200000     -68.77900000
