40
Properties=species:S:1:pos:R:3 #=T CELL(abcABC):=T 1.889726e+02=T 90.00000=T Traj:=T positionsangstrom=T Step:=T 0=T Bead:=T pbc="F F F"
C      -47.23600000     -31.04730000     -73.84460000
C      -46.26640000     -31.25960000     -72.92640000
C      -45.79540000     -32.55020000     -72.74260000
C      -46.26310000     -33.54180000     -73.53450000
C      -47.19870000     -33.34240000     -74.50950000
C      -47.65210000     -32.05850000     -74.74160000
H      -47.56390000     -30.03120000     -74.00930000
H      -45.03550000     -32.66550000     -71.96610000
H      -47.30400000     -34.15160000     -75.22460000
H      -48.26880000     -31.79440000     -75.59390000
C      -45.82840000     -35.02580000     -73.45870000
H      -44.84430000     -35.02480000     -73.02260000
H      -45.80920000     -35.44300000     -74.48840000
C      -45.75870000     -30.08930000     -72.03420000
H      -44.65210000     -30.13590000     -71.89590000
H      -45.92250000     -29.17160000     -72.59800000
S      -46.97270000     -36.05520000     -72.52760000
S      -46.59970000     -29.85740000     -70.43010000
C      -47.49750000     -35.13320000     -71.05810000
H      -47.57760000     -34.07760000     -71.30470000
H      -48.56480000     -35.31690000     -70.82570000
C      -46.74260000     -31.56280000     -69.66140000
H      -46.94690000     -32.21190000     -70.55510000
H      -47.65630000     -31.54330000     -69.12500000
C      -45.60190000     -32.22100000     -68.79200000
H      -45.29140000     -31.38790000     -68.05750000
H      -46.18080000     -32.95750000     -68.18040000
C      -46.52900000     -35.38380000     -69.80970000
H      -46.69160000     -36.44270000     -69.47370000
H      -46.94270000     -34.71150000     -68.95740000
C      -45.08470000     -35.24190000     -70.07950000
C      -44.34730000     -36.28690000     -70.52450000
C      -44.20420000     -34.01670000     -69.93820000
H      -44.79820000     -37.36400000     -70.58970000
C      -42.89040000     -34.33790000     -70.32930000
C      -44.41770000     -32.70440000     -69.44290000
C      -43.22580000     -32.03350000     -69.45760000
S      -42.63480000     -35.96560000     -70.81410000
S      -41.83700000     -32.95240000     -70.06790000
H      -43.24340000     -31.09730000     -68.90210000
