40
Properties=species:S:1:pos:R:3 #=T CELL(abcABC):=T 1.889726e+02=T 90.00000=T Traj:=T positionsangstrom=T Step:=T 0=T Bead:=T pbc="F F F"
C      -46.82060000     -30.57420000     -73.20730000
C      -45.72310000     -31.19410000     -72.50650000
C      -45.23550000     -32.44660000     -72.89000000
C      -46.01810000     -33.17340000     -73.79070000
C      -47.26090000     -32.71090000     -74.30550000
C      -47.57370000     -31.31090000     -74.11250000
H      -47.10810000     -29.51780000     -73.06430000
H      -44.31110000     -32.94970000     -72.44010000
H      -47.85890000     -33.39590000     -75.00890000
H      -48.34630000     -30.82280000     -74.68280000
C      -45.67690000     -34.63480000     -74.09100000
H      -44.70930000     -34.93650000     -73.69180000
H      -45.61330000     -34.97880000     -75.13380000
C      -45.04190000     -30.44640000     -71.39470000
H      -44.11750000     -31.02820000     -71.09090000
H      -44.74860000     -29.43480000     -71.60910000
S      -47.03150000     -35.73210000     -73.40090000
S      -46.16210000     -30.25020000     -69.90420000
C      -47.45500000     -35.34250000     -71.74280000
H      -47.19470000     -34.20860000     -71.58010000
H      -48.45260000     -35.57390000     -71.50180000
C      -47.12080000     -31.87260000     -69.62050000
H      -47.24620000     -32.34080000     -70.64570000
H      -48.03850000     -31.50770000     -69.14200000
C      -46.35090000     -32.78660000     -68.63270000
H      -46.23500000     -32.17260000     -67.72360000
H      -47.03500000     -33.65420000     -68.45690000
C      -46.58930000     -36.03080000     -70.60380000
H      -46.64850000     -37.06630000     -70.83420000
H      -47.02440000     -35.87660000     -69.62180000
C      -45.10550000     -35.49190000     -70.61230000
C      -44.13470000     -36.17930000     -71.26940000
C      -44.51780000     -34.29640000     -69.97130000
H      -44.18610000     -37.05080000     -71.82930000
C      -43.12260000     -34.22460000     -70.23800000
C      -44.94110000     -33.24060000     -69.03090000
C      -43.84060000     -32.53850000     -68.57190000
S      -42.55520000     -35.52560000     -71.25520000
S      -42.31370000     -32.98950000     -69.35300000
H      -43.96270000     -31.76850000     -67.87990000
