40
Properties=species:S:1:pos:R:3 #=T CELL(abcABC):=T 1.889726e+02=T 90.00000=T Traj:=T positionsangstrom=T Step:=T 0=T Bead:=T pbc="F F F"
C      -46.57540000     -29.68440000     -72.39010000
C      -45.68700000     -30.64760000     -72.91520000
C      -44.32190000     -30.79010000     -72.44090000
C      -44.01320000     -29.99420000     -71.26000000
C      -44.92110000     -29.07880000     -70.76060000
C      -46.19210000     -29.00520000     -71.30150000
H      -47.57510000     -29.69810000     -72.87120000
H      -43.54260000     -31.45780000     -72.79160000
H      -44.74870000     -28.45300000     -69.91620000
H      -46.89990000     -28.27040000     -70.82820000
C      -42.64460000     -30.10990000     -70.65010000
H      -42.75700000     -29.84690000     -69.59240000
H      -41.84930000     -29.36000000     -71.05110000
C      -45.99310000     -31.36450000     -74.20600000
H      -45.97150000     -30.70510000     -75.09210000
H      -45.20800000     -32.03530000     -74.48030000
S      -41.83250000     -31.77330000     -71.00410000
S      -47.73780000     -32.11300000     -74.18530000
C      -42.75340000     -32.89630000     -69.78430000
H      -41.99680000     -33.62260000     -69.41660000
H      -43.13900000     -32.29770000     -68.96610000
C      -47.57180000     -33.18880000     -72.71620000
H      -48.60980000     -33.59670000     -72.56150000
H      -47.21910000     -32.60450000     -71.79400000
C      -46.50320000     -34.38110000     -72.86520000
H      -46.69190000     -34.89650000     -73.79970000
H      -45.48950000     -33.90310000     -72.79700000
C      -43.75090000     -33.66600000     -70.68820000
H      -43.13730000     -33.92270000     -71.59340000
H      -44.49350000     -32.99530000     -71.10880000
C      -44.42000000     -34.87250000     -70.03500000
C      -44.04050000     -35.39000000     -68.83980000
C      -45.53180000     -35.65930000     -70.67200000
H      -43.24400000     -34.97160000     -68.25860000
C      -45.91460000     -36.78870000     -69.96910000
C      -46.55460000     -35.47500000     -71.76340000
C      -47.33960000     -36.54260000     -71.97240000
S      -44.91620000     -36.88020000     -68.47780000
S      -47.19500000     -37.68660000     -70.63890000
H      -48.08110000     -36.57370000     -72.74370000
