40
Properties=species:S:1:pos:R:3 #=T CELL(abcABC):=T 1.889726e+02=T 90.00000=T Traj:=T positionsangstrom=T Step:=T 0=T Bead:=T pbc="F F F"
C      -46.71110000     -29.75600000     -72.44930000
C      -45.73010000     -30.51510000     -73.12490000
C      -44.37410000     -30.62470000     -72.59430000
C      -44.05760000     -29.93660000     -71.36410000
C      -45.04420000     -29.11080000     -70.77110000
C      -46.34360000     -29.03420000     -71.26990000
H      -47.77390000     -29.47530000     -72.78410000
H      -43.73410000     -31.27040000     -73.12410000
H      -44.84360000     -28.62370000     -69.78280000
H      -47.06560000     -28.40100000     -70.72330000
C      -42.67480000     -30.14860000     -70.74410000
H      -42.74800000     -30.01290000     -69.70170000
H      -42.03290000     -29.36190000     -71.27580000
C      -46.14520000     -31.25120000     -74.38770000
H      -46.51380000     -30.49450000     -75.17240000
H      -45.26210000     -31.81400000     -74.82370000
S      -41.73630000     -31.71300000     -70.94880000
S      -47.60310000     -32.29780000     -74.18800000
C      -42.65020000     -32.99760000     -70.04810000
H      -41.91930000     -33.82610000     -69.70000000
H      -42.98540000     -32.42530000     -69.20690000
C      -47.38070000     -33.34000000     -72.67900000
H      -48.31390000     -33.73920000     -72.42820000
H      -47.10000000     -32.77630000     -71.84070000
C      -46.29590000     -34.47300000     -72.81290000
H      -46.32630000     -35.01790000     -73.72650000
H      -45.32060000     -33.99430000     -72.76010000
C      -43.76930000     -33.72960000     -70.81870000
H      -43.48290000     -34.00730000     -71.83250000
H      -44.64620000     -33.02550000     -71.06060000
C      -44.42910000     -34.89460000     -70.09920000
C      -43.99300000     -35.42600000     -68.89670000
C      -45.62010000     -35.54990000     -70.61790000
H      -43.20980000     -34.99670000     -68.34750000
C      -45.99420000     -36.60870000     -69.83100000
C      -46.48940000     -35.48550000     -71.71690000
C      -47.35790000     -36.51550000     -71.80020000
S      -44.98280000     -36.83880000     -68.40030000
S      -47.21040000     -37.63310000     -70.43530000
H      -48.15700000     -36.64690000     -72.50680000
