40
Properties=species:S:1:pos:R:3 #=T CELL(abcABC):=T 1.889726e+02=T 90.00000=T Traj:=T positionsangstrom=T Step:=T 0=T Bead:=T pbc="F F F"
C      -44.00510000     -35.77390000     -72.33340000
C      -44.77740000     -36.29510000     -71.24420000
C      -44.34370000     -36.01670000     -69.97550000
C      -43.15130000     -35.23690000     -69.74990000
C      -42.34080000     -34.87960000     -70.83140000
C      -42.80030000     -35.17390000     -72.15800000
H      -44.33830000     -35.93520000     -73.31450000
H      -45.01310000     -36.11450000     -69.15720000
H      -41.40160000     -34.26740000     -70.65790000
H      -42.10960000     -35.00500000     -72.97670000
C      -42.67770000     -34.99290000     -68.30780000
H      -41.69330000     -34.54260000     -68.37560000
H      -42.74110000     -35.82740000     -67.64390000
C      -46.09800000     -37.07600000     -71.52610000
H      -46.12420000     -37.49000000     -72.53140000
H      -46.22860000     -37.89980000     -70.78540000
S      -43.85020000     -33.77930000     -67.55890000
S      -47.58900000     -36.02760000     -71.23950000
C      -44.04950000     -32.48250000     -68.88950000
H      -44.07440000     -31.39650000     -68.51140000
H      -43.10420000     -32.51130000     -69.44270000
C      -47.49640000     -34.58330000     -72.28450000
H      -48.12320000     -34.70700000     -73.19160000
H      -46.42090000     -34.42580000     -72.58380000
C      -48.03490000     -33.33250000     -71.57550000
H      -49.13220000     -33.35740000     -71.63580000
H      -47.67350000     -33.29340000     -70.55720000
C      -45.28300000     -32.65100000     -69.73090000
H      -46.26220000     -32.40600000     -69.10200000
H      -45.54230000     -33.72600000     -70.00460000
C      -45.25350000     -31.86730000     -71.07400000
C      -44.14690000     -31.09130000     -71.29100000
C      -46.23600000     -31.70130000     -72.15520000
H      -43.43540000     -30.82940000     -70.55280000
C      -45.73700000     -30.80940000     -73.12600000
C      -47.55580000     -32.16990000     -72.37750000
C      -48.08180000     -31.62810000     -73.56950000
S      -44.18960000     -30.17840000     -72.74260000
S      -46.98830000     -30.50060000     -74.36140000
H      -49.16200000     -31.75140000     -73.96210000
