40
Properties=species:S:1:pos:R:3 #=T CELL(abcABC):=T 1.889726e+02=T 90.00000=T Traj:=T positionsangstrom=T Step:=T 0=T Bead:=T pbc="F F F"
C      -46.41750000     -30.30830000     -73.45790000
C      -45.86220000     -30.97760000     -72.41650000
C      -45.52890000     -32.38350000     -72.60930000
C      -45.90770000     -33.05720000     -73.83950000
C      -46.46520000     -32.27110000     -74.83500000
C      -46.68760000     -30.91620000     -74.69040000
H      -46.51960000     -29.23070000     -73.30110000
H      -44.97610000     -33.00760000     -71.90440000
H      -46.77780000     -32.80820000     -75.77980000
H      -47.07750000     -30.39200000     -75.49380000
C      -45.51180000     -34.51000000     -73.96850000
H      -44.60930000     -34.68350000     -73.23360000
H      -45.29890000     -34.82430000     -75.02690000
C      -45.56040000     -30.29880000     -71.11940000
H      -44.48990000     -30.53390000     -70.73920000
H      -45.57640000     -29.22590000     -71.36330000
S      -46.87870000     -35.61910000     -73.37750000
S      -46.67520000     -30.45190000     -69.69040000
C      -47.38660000     -35.04950000     -71.83660000
H      -47.40490000     -33.90160000     -71.80570000
H      -48.35540000     -35.28240000     -71.72710000
C      -47.18180000     -32.21630000     -69.67950000
H      -46.79220000     -32.60650000     -70.67390000
H      -48.29350000     -32.42190000     -69.73560000
C      -46.38040000     -32.99840000     -68.56520000
H      -46.37950000     -32.35750000     -67.72470000
H      -46.87830000     -33.93000000     -68.31260000
C      -46.70920000     -35.69650000     -70.57660000
H      -46.95650000     -36.80890000     -70.69050000
H      -47.17030000     -35.17830000     -69.66200000
C      -45.18480000     -35.49580000     -70.54430000
C      -44.31850000     -36.41190000     -71.06640000
C      -44.47720000     -34.38730000     -69.97670000
H      -44.58830000     -37.35270000     -71.52300000
C      -43.12820000     -34.45300000     -70.19700000
C      -44.90830000     -33.31660000     -69.10760000
C      -43.80440000     -32.51360000     -68.83630000
S      -42.64830000     -35.90040000     -70.97850000
S      -42.30670000     -33.05430000     -69.56580000
H      -43.69560000     -31.63380000     -68.10420000
