40
Properties=species:S:1:pos:R:3 #=T CELL(abcABC):=T 1.889726e+02=T 90.00000=T Traj:=T positionsangstrom=T Step:=T 0=T Bead:=T pbc="F F F"
C      -46.70030000     -30.42200000     -72.78640000
C      -45.68080000     -31.07970000     -73.53110000
C      -44.40540000     -31.04820000     -73.02390000
C      -44.07450000     -30.19190000     -71.95980000
C      -45.07150000     -29.45710000     -71.32770000
C      -46.44890000     -29.66290000     -71.67730000
H      -47.76930000     -30.59250000     -73.11160000
H      -43.51410000     -31.48560000     -73.50530000
H      -44.85100000     -28.91480000     -70.38490000
H      -47.23090000     -29.17900000     -71.08550000
C      -42.57990000     -30.09860000     -71.51410000
H      -42.56730000     -29.57890000     -70.52480000
H      -42.06020000     -29.57240000     -72.35360000
C      -46.01430000     -31.85370000     -74.81960000
H      -46.39480000     -31.06450000     -75.52590000
H      -45.12980000     -32.33490000     -75.28700000
S      -41.61910000     -31.74220000     -71.34210000
S      -47.45810000     -32.92400000     -74.49140000
C      -42.64320000     -32.76120000     -70.22710000
H      -42.02920000     -33.39690000     -69.56880000
H      -43.11690000     -32.07990000     -69.58550000
C      -47.20930000     -33.70420000     -72.77370000
H      -48.20300000     -34.16660000     -72.53450000
H      -47.07480000     -32.85010000     -72.09490000
C      -46.19450000     -34.93630000     -72.78690000
H      -46.44980000     -35.71610000     -73.49190000
H      -45.17660000     -34.65480000     -72.88580000
C      -43.71610000     -33.58340000     -70.93980000
H      -43.22310000     -34.30530000     -71.65070000
H      -44.42700000     -32.97490000     -71.44800000
C      -44.44160000     -34.46480000     -69.86680000
C      -44.19190000     -34.57930000     -68.52250000
C      -45.51030000     -35.38930000     -70.33820000
H      -43.40670000     -33.94280000     -68.03650000
C      -46.08540000     -36.00920000     -69.22720000
C      -46.38900000     -35.64500000     -71.43730000
C      -47.37240000     -36.50230000     -71.23430000
S      -45.21340000     -35.83200000     -67.71950000
S      -47.38740000     -37.12150000     -69.54890000
H      -48.13610000     -36.81940000     -71.96180000
