40
Properties=species:S:1:pos:R:3 #=T CELL(abcABC):=T 1.889726e+02=T 90.00000=T Traj:=T positionsangstrom=T Step:=T 0=T Bead:=T pbc="F F F"
C      -46.82800000     -30.46080000     -73.61940000
C      -45.89530000     -30.85920000     -72.64220000
C      -45.22990000     -32.10740000     -72.80720000
C      -45.51500000     -32.99840000     -73.91180000
C      -46.47660000     -32.53870000     -74.81790000
C      -47.01530000     -31.23460000     -74.74130000
H      -47.28280000     -29.47340000     -73.56620000
H      -44.45740000     -32.50350000     -72.11990000
H      -46.72490000     -33.12250000     -75.71750000
H      -47.66780000     -30.88080000     -75.58450000
C      -44.90960000     -34.38540000     -74.07380000
H      -44.08630000     -34.52440000     -73.34910000
H      -44.59160000     -34.51560000     -75.10360000
C      -45.54520000     -30.14400000     -71.37140000
H      -44.60810000     -30.47320000     -70.89820000
H      -45.30270000     -29.08210000     -71.57820000
S      -46.10920000     -35.76560000     -73.64750000
S      -47.02550000     -30.19240000     -70.23650000
C      -47.11840000     -35.00330000     -72.22310000
H      -46.86630000     -33.96330000     -72.30520000
H      -48.18080000     -35.21870000     -72.54380000
C      -47.24900000     -32.02680000     -69.82970000
H      -47.05100000     -32.49450000     -70.75470000
H      -48.32340000     -32.10260000     -69.51490000
C      -46.27490000     -32.46430000     -68.71050000
H      -46.04820000     -31.57310000     -68.01750000
H      -46.83410000     -33.25710000     -68.14390000
C      -46.84870000     -35.45650000     -70.73420000
H      -47.19510000     -36.47260000     -70.54820000
H      -47.42470000     -34.71560000     -70.12590000
C      -45.42770000     -35.47830000     -70.30110000
C      -44.65570000     -36.57050000     -70.52430000
C      -44.70950000     -34.41590000     -69.63390000
H      -44.85850000     -37.42830000     -71.15340000
C      -43.30650000     -34.73040000     -69.60350000
C      -44.96520000     -33.02570000     -69.05480000
C      -43.78390000     -32.40680000     -68.76760000
S      -42.87050000     -36.19700000     -70.44320000
S      -42.40120000     -33.32160000     -69.18860000
H      -43.62220000     -31.41020000     -68.30330000
