40
Properties=species:S:1:pos:R:3 #=T CELL(abcABC):=T 1.889726e+02=T 90.00000=T Traj:=T positionsangstrom=T Step:=T 0=T Bead:=T pbc="F F F"
C      -46.23410000     -29.84970000     -73.47890000
C      -45.36660000     -30.89190000     -73.81170000
C      -44.14530000     -31.07360000     -73.10920000
C      -43.99500000     -30.24490000     -71.96190000
C      -44.86550000     -29.19840000     -71.70580000
C      -45.99210000     -28.92610000     -72.48480000
H      -47.21440000     -29.87800000     -74.05310000
H      -43.47560000     -31.87270000     -73.34500000
H      -44.63690000     -28.54980000     -70.83200000
H      -46.61620000     -28.08230000     -72.26930000
C      -42.68180000     -30.39880000     -71.14850000
H      -42.86560000     -29.96740000     -70.20160000
H      -41.85190000     -29.69040000     -71.57210000
C      -45.67750000     -31.84110000     -74.96130000
H      -45.97330000     -31.31010000     -75.86290000
H      -44.94500000     -32.60240000     -74.97160000
S      -41.83990000     -32.08800000     -71.10870000
S      -47.28730000     -32.77160000     -74.58520000
C      -42.76630000     -33.23990000     -69.96830000
H      -42.43220000     -34.24010000     -70.30440000
H      -42.38650000     -33.04440000     -68.94650000
C      -46.99170000     -33.45040000     -72.87600000
H      -48.03010000     -33.70770000     -72.51180000
H      -46.53820000     -32.53900000     -72.28520000
C      -46.16890000     -34.73760000     -72.73240000
H      -46.43820000     -35.41710000     -73.49480000
H      -45.11700000     -34.55010000     -72.91670000
C      -44.28610000     -33.11660000     -70.13470000
H      -44.57970000     -33.07380000     -71.13480000
H      -44.67540000     -32.17880000     -69.71640000
C      -44.89730000     -34.32460000     -69.42640000
C      -44.74330000     -34.59350000     -68.10600000
C      -45.84450000     -35.23480000     -70.07070000
H      -44.23980000     -34.03340000     -67.30890000
C      -46.22180000     -36.24930000     -69.16660000
C      -46.40780000     -35.47310000     -71.38540000
C      -47.17280000     -36.61010000     -71.38030000
S      -45.59960000     -35.98710000     -67.54550000
S      -47.08500000     -37.55720000     -69.92710000
H      -47.71650000     -37.00110000     -72.26660000
