40
Properties=species:S:1:pos:R:3 #=T CELL(abcABC):=T 1.889726e+02=T 90.00000=T Traj:=T positionsangstrom=T Step:=T 0=T Bead:=T pbc="F F F"
C      -46.45560000     -30.52400000     -73.72790000
C      -45.59870000     -30.92410000     -72.68650000
C      -45.07240000     -32.17910000     -72.76090000
C      -45.24820000     -33.05220000     -73.88200000
C      -45.99680000     -32.61270000     -74.96780000
C      -46.65790000     -31.39320000     -74.79860000
H      -47.10290000     -29.63730000     -73.63350000
H      -44.38430000     -32.63180000     -72.11980000
H      -46.27100000     -33.21570000     -75.79370000
H      -47.41900000     -31.08180000     -75.53760000
C      -44.75800000     -34.42530000     -73.65370000
H      -44.25980000     -34.48090000     -72.68030000
H      -43.91880000     -34.76080000     -74.36830000
C      -45.38090000     -29.97960000     -71.52170000
H      -44.44120000     -30.23850000     -70.94020000
H      -45.37930000     -28.89850000     -71.82450000
S      -46.06510000     -35.77810000     -73.70980000
S      -46.74470000     -29.93760000     -70.28310000
C      -47.12070000     -35.17380000     -72.28690000
H      -47.04760000     -34.15080000     -72.27830000
H      -48.12960000     -35.39550000     -72.57210000
C      -47.32800000     -31.68960000     -70.34380000
H      -47.15410000     -32.06840000     -71.47860000
H      -48.47620000     -31.69450000     -70.30710000
C      -46.73560000     -32.59250000     -69.29790000
H      -46.86270000     -32.12210000     -68.29520000
H      -47.46270000     -33.41040000     -69.24350000
C      -46.89960000     -35.70410000     -70.79960000
H      -47.27500000     -36.76030000     -70.69490000
H      -47.65790000     -35.20960000     -70.25940000
C      -45.50460000     -35.68630000     -70.36120000
C      -44.59030000     -36.66780000     -70.52300000
C      -44.86980000     -34.42330000     -69.79920000
H      -44.78140000     -37.74760000     -70.74450000
C      -43.48530000     -34.57540000     -69.65280000
C      -45.29930000     -33.06140000     -69.34540000
C      -44.28130000     -32.36420000     -68.84670000
S      -42.91700000     -36.19480000     -69.99750000
S      -42.81620000     -33.24140000     -68.76120000
H      -44.37730000     -31.43690000     -68.37430000
