40
Properties=species:S:1:pos:R:3 #=T CELL(abcABC):=T 1.889726e+02=T 90.00000=T Traj:=T positionsangstrom=T Step:=T 0=T Bead:=T pbc="F F F"
C      -46.26170000     -29.94520000     -73.30240000
C      -45.30340000     -30.83250000     -73.78130000
C      -44.04550000     -30.98880000     -73.11250000
C      -43.84340000     -30.21260000     -71.99790000
C      -44.77510000     -29.25000000     -71.59010000
C      -45.94730000     -29.03500000     -72.30310000
H      -47.08610000     -29.87280000     -73.95530000
H      -43.33970000     -31.71590000     -73.39530000
H      -44.58420000     -28.68740000     -70.62410000
H      -46.60950000     -28.22750000     -72.05620000
C      -42.68870000     -30.45120000     -71.16360000
H      -43.05150000     -30.37380000     -70.10990000
H      -41.99460000     -29.72670000     -71.37870000
C      -45.69270000     -31.80550000     -74.80620000
H      -45.81200000     -31.39310000     -75.83780000
H      -44.89960000     -32.51060000     -75.06180000
S      -41.84060000     -32.05230000     -71.29460000
S      -47.22200000     -32.83840000     -74.45400000
C      -42.79720000     -33.19470000     -70.27670000
H      -42.49070000     -34.21590000     -70.56940000
H      -42.53270000     -32.99550000     -69.21690000
C      -47.10990000     -33.54440000     -72.70840000
H      -48.05770000     -33.83970000     -72.27230000
H      -46.71110000     -32.81320000     -72.01810000
C      -46.19880000     -34.72520000     -72.63110000
H      -46.37870000     -35.36210000     -73.48130000
H      -45.13510000     -34.35010000     -72.82430000
C      -44.37940000     -33.12950000     -70.30930000
H      -44.71500000     -33.04830000     -71.40550000
H      -44.72140000     -32.15310000     -69.84550000
C      -45.02920000     -34.25100000     -69.53560000
C      -44.92080000     -34.37160000     -68.17560000
C      -45.84520000     -35.29040000     -70.11580000
H      -44.33910000     -33.78160000     -67.45730000
C      -46.26050000     -36.22180000     -69.15940000
C      -46.28620000     -35.59410000     -71.43200000
C      -46.98530000     -36.79280000     -71.47170000
S      -45.62740000     -35.91250000     -67.58170000
S      -47.14950000     -37.51220000     -69.85260000
H      -47.44100000     -37.31580000     -72.39480000
