40
Properties=species:S:1:pos:R:3 #=T CELL(abcABC):=T 1.889726e+02=T 90.00000=T Traj:=T positionsangstrom=T Step:=T 0=T Bead:=T pbc="F F F"
C      -45.17380000     -31.15870000     -74.12440000
C      -44.87630000     -31.77460000     -72.92720000
C      -45.88230000     -32.10960000     -72.04070000
C      -47.25010000     -31.89250000     -72.39490000
C      -47.57680000     -31.11340000     -73.57150000
C      -46.48040000     -30.76590000     -74.43500000
H      -44.39070000     -30.76340000     -74.80180000
H      -45.69850000     -32.58920000     -71.09090000
H      -48.59460000     -30.84420000     -73.78730000
H      -46.69550000     -30.33270000     -75.36320000
C      -48.33960000     -32.42920000     -71.48680000
H      -49.09630000     -31.71980000     -71.43060000
H      -47.97010000     -32.64930000     -70.47600000
C      -43.38660000     -31.90240000     -72.65870000
H      -42.87660000     -30.94120000     -73.07980000
H      -43.18740000     -32.08040000     -71.63860000
S      -49.00260000     -34.03910000     -72.10850000
S      -42.59000000     -33.32210000     -73.57920000
C      -47.40260000     -35.05540000     -72.16120000
H      -47.63420000     -35.99320000     -72.64970000
H      -46.61050000     -34.54810000     -72.72110000
C      -43.79660000     -34.70490000     -73.25920000
H      -43.70490000     -35.41290000     -74.12600000
H      -44.78010000     -34.21850000     -73.25670000
C      -43.69400000     -35.54390000     -71.96290000
H      -44.60650000     -36.15430000     -71.97330000
H      -42.89760000     -36.29930000     -71.88000000
C      -46.89520000     -35.53940000     -70.75410000
H      -46.31070000     -36.45710000     -70.98110000
H      -47.84380000     -35.78810000     -70.26270000
C      -46.10320000     -34.62910000     -69.85230000
C      -46.72130000     -34.06540000     -68.80970000
C      -44.71830000     -34.34460000     -69.87550000
H      -47.74600000     -34.16550000     -68.58160000
C      -44.29460000     -33.52700000     -68.83490000
C      -43.58700000     -34.83070000     -70.63170000
C      -42.38740000     -34.48880000     -70.06690000
S      -45.70810000     -32.99800000     -67.89760000
S      -42.58650000     -33.39580000     -68.71210000
H      -41.36730000     -34.49880000     -70.43670000
