40
Properties=species:S:1:pos:R:3 #=T CELL(abcABC):=T 1.889726e+02=T 90.00000=T Traj:=T positionsangstrom=T Step:=T 0=T Bead:=T pbc="F F F"
C      -46.32370000     -29.92410000     -73.17460000
C      -45.46450000     -30.96700000     -73.68070000
C      -44.29690000     -31.12960000     -73.05790000
C      -43.87050000     -30.23000000     -72.04150000
C      -44.65490000     -29.13920000     -71.62140000
C      -45.97990000     -29.10230000     -72.15610000
H      -47.23800000     -29.83450000     -73.66220000
H      -43.54120000     -31.90170000     -73.33730000
H      -44.26110000     -28.42420000     -70.98180000
H      -46.57630000     -28.18220000     -72.06020000
C      -42.57860000     -30.37390000     -71.27570000
H      -42.74910000     -30.19240000     -70.26110000
H      -41.75110000     -29.64920000     -71.50870000
C      -46.02180000     -31.80690000     -74.77390000
H      -46.55190000     -31.14950000     -75.48900000
H      -45.17710000     -32.40790000     -75.26170000
S      -41.69760000     -32.07410000     -71.18250000
S      -47.38450000     -32.96430000     -74.40340000
C      -42.68140000     -33.02050000     -69.97390000
H      -42.23550000     -34.04720000     -69.84590000
H      -42.59040000     -32.49840000     -68.95700000
C      -47.15770000     -33.87750000     -72.80130000
H      -48.13830000     -34.34170000     -72.47810000
H      -46.92770000     -33.07220000     -71.99360000
C      -46.00910000     -34.96340000     -72.83680000
H      -46.00570000     -35.71190000     -73.61330000
H      -45.17020000     -34.42490000     -72.92130000
C      -44.10680000     -33.18670000     -70.43860000
H      -44.08610000     -33.51350000     -71.47880000
H      -44.45900000     -32.11990000     -70.42020000
C      -44.91530000     -34.22650000     -69.61940000
C      -44.93310000     -34.31150000     -68.23540000
C      -45.78320000     -35.23950000     -70.18930000
H      -44.40810000     -33.53690000     -67.62940000
C      -46.21010000     -36.13410000     -69.20040000
C      -46.17670000     -35.65820000     -71.51970000
C      -46.81750000     -36.89900000     -71.49370000
S      -45.81790000     -35.62930000     -67.60190000
S      -47.10650000     -37.43740000     -69.90290000
H      -47.34850000     -37.47120000     -72.34000000
