40
Properties=species:S:1:pos:R:3 #=T CELL(abcABC):=T 1.889726e+02=T 90.00000=T Traj:=T positionsangstrom=T Step:=T 0=T Bead:=T pbc="F F F"
C      -46.26490000     -29.88860000     -73.30350000
C      -45.46830000     -31.01500000     -73.55850000
C      -44.23320000     -31.11710000     -72.92690000
C      -43.91240000     -30.25780000     -71.88820000
C      -44.75820000     -29.18700000     -71.56870000
C      -45.97310000     -29.02970000     -72.22090000
H      -47.20870000     -29.87150000     -73.71240000
H      -43.55820000     -31.99390000     -73.16230000
H      -44.40890000     -28.60660000     -70.70630000
H      -46.76070000     -28.38460000     -71.83760000
C      -42.59780000     -30.42460000     -71.22900000
H      -42.50630000     -30.02680000     -70.18940000
H      -41.94350000     -29.74020000     -71.82380000
C      -45.72680000     -32.02110000     -74.73480000
H      -45.79800000     -31.44590000     -75.61420000
H      -44.86770000     -32.70720000     -74.78240000
S      -41.81680000     -32.11490000     -71.37690000
S      -47.36530000     -32.91480000     -74.48390000
C      -42.80010000     -33.12550000     -70.13760000
H      -42.45760000     -34.14930000     -70.21540000
H      -42.49940000     -32.86040000     -69.16250000
C      -46.91280000     -33.61430000     -72.81890000
H      -47.89500000     -33.76810000     -72.40650000
H      -46.43320000     -32.83140000     -72.28550000
C      -45.99410000     -34.85710000     -72.74260000
H      -46.44180000     -35.52820000     -73.55230000
H      -44.90060000     -34.67460000     -72.94400000
C      -44.32340000     -33.03640000     -70.36480000
H      -44.51890000     -33.13500000     -71.44800000
H      -44.76990000     -32.18960000     -69.95860000
C      -44.95360000     -34.20980000     -69.61310000
C      -44.88040000     -34.29230000     -68.24990000
C      -45.72720000     -35.28550000     -70.17900000
H      -44.26500000     -33.64800000     -67.61660000
C      -46.14760000     -36.18000000     -69.20210000
C      -46.22500000     -35.63190000     -71.47450000
C      -47.01950000     -36.78740000     -71.45190000
S      -45.72610000     -35.69910000     -67.57650000
S      -47.13760000     -37.44530000     -69.83030000
H      -47.48590000     -37.45220000     -72.26810000
