40
Properties=species:S:1:pos:R:3 #=T CELL(abcABC):=T 1.889726e+02=T 90.00000=T Traj:=T positionsangstrom=T Step:=T 0=T Bead:=T pbc="F F F"
C      -46.09240000     -30.00890000     -73.51580000
C      -45.22510000     -31.09990000     -73.77720000
C      -44.04960000     -31.14750000     -73.03150000
C      -43.86660000     -30.22960000     -71.92560000
C      -44.78310000     -29.14600000     -71.71810000
C      -45.86300000     -29.00330000     -72.54070000
H      -47.05930000     -30.01660000     -73.91070000
H      -43.38610000     -31.94070000     -73.24640000
H      -44.56640000     -28.48240000     -70.83340000
H      -46.45780000     -28.09980000     -72.42390000
C      -42.68440000     -30.32120000     -71.02490000
H      -43.03880000     -30.18740000     -70.02150000
H      -41.98650000     -29.46700000     -71.15650000
C      -45.48090000     -32.20760000     -74.79170000
H      -45.49560000     -31.97650000     -75.86860000
H      -44.82820000     -33.11850000     -74.64610000
S      -41.70600000     -31.92280000     -71.03560000
S      -47.20090000     -32.99830000     -74.56290000
C      -42.75580000     -33.07090000     -69.99460000
H      -42.08480000     -33.98430000     -69.89800000
H      -42.71040000     -32.67540000     -68.95490000
C      -47.18480000     -33.63060000     -72.83960000
H      -48.21740000     -33.94860000     -72.55050000
H      -46.88860000     -32.84340000     -72.11450000
C      -46.29670000     -34.87120000     -72.70500000
H      -46.60230000     -35.54550000     -73.55060000
H      -45.23200000     -34.46930000     -72.72100000
C      -44.17820000     -33.37130000     -70.52920000
H      -43.92930000     -33.83820000     -71.47400000
H      -44.78680000     -32.49660000     -70.85450000
C      -44.94660000     -34.33220000     -69.72680000
C      -44.75540000     -34.38500000     -68.37940000
C      -45.92120000     -35.22600000     -70.17350000
H      -44.02780000     -33.82250000     -67.85210000
C      -46.27980000     -36.09860000     -69.15130000
C      -46.53380000     -35.60310000     -71.41790000
C      -47.49830000     -36.55330000     -71.25100000
S      -45.57880000     -35.71950000     -67.63390000
S      -47.35630000     -37.38030000     -69.71090000
H      -48.22280000     -36.86170000     -72.04350000
