40
Properties=species:S:1:pos:R:3 #=T CELL(abcABC):=T 1.889726e+02=T 90.00000=T Traj:=T positionsangstrom=T Step:=T 0=T Bead:=T pbc="F F F"
C      -46.12570000     -30.02980000     -73.40800000
C      -45.24210000     -31.06610000     -73.74310000
C      -44.21530000     -31.24000000     -72.87040000
C      -43.98880000     -30.36610000     -71.82690000
C      -44.80940000     -29.22420000     -71.57300000
C      -45.88300000     -29.10130000     -72.43650000
H      -46.99290000     -29.89550000     -74.09970000
H      -43.49700000     -32.07380000     -73.00110000
H      -44.63640000     -28.47040000     -70.75600000
H      -46.65700000     -28.34450000     -72.34500000
C      -42.70830000     -30.42230000     -71.03600000
H      -42.85630000     -30.33600000     -69.94730000
H      -42.06020000     -29.58250000     -71.32900000
C      -45.40130000     -32.09690000     -74.85780000
H      -45.31160000     -31.54620000     -75.74980000
H      -44.61380000     -32.77920000     -74.78640000
S      -41.70890000     -31.96790000     -71.12230000
S      -47.12740000     -32.90150000     -74.71050000
C      -42.79420000     -33.02090000     -70.05540000
H      -42.28160000     -33.86650000     -69.56560000
H      -43.21800000     -32.37320000     -69.33000000
C      -47.21860000     -33.70170000     -73.00100000
H      -48.29260000     -33.77230000     -72.87580000
H      -46.82160000     -32.94740000     -72.29860000
C      -46.41820000     -35.07980000     -72.87620000
H      -46.80440000     -35.73960000     -73.55930000
H      -45.45900000     -35.01610000     -73.29800000
C      -44.10640000     -33.49400000     -70.74700000
H      -44.06520000     -34.05880000     -71.64020000
H      -44.66280000     -32.54810000     -71.02310000
C      -44.95770000     -34.29750000     -69.76450000
C      -44.64500000     -34.27970000     -68.44310000
C      -45.90000000     -35.26810000     -70.14440000
H      -43.87430000     -33.67480000     -67.98630000
C      -46.30320000     -35.97180000     -69.01040000
C      -46.46400000     -35.75400000     -71.43240000
C      -47.24060000     -36.85660000     -71.21960000
S      -45.57580000     -35.50560000     -67.57210000
S      -47.41420000     -37.25840000     -69.51030000
H      -47.60370000     -37.58040000     -72.00240000
