40
Properties=species:S:1:pos:R:3 #=T CELL(abcABC):=T 1.889726e+02=T 90.00000=T Traj:=T positionsangstrom=T Step:=T 0=T Bead:=T pbc="F F F"
C      -44.01150000     -30.75350000     -74.05700000
C      -44.35710000     -31.19880000     -72.78480000
C      -44.45240000     -32.58100000     -72.47800000
C      -44.25240000     -33.54530000     -73.52520000
C      -43.90910000     -33.05290000     -74.80500000
C      -43.81720000     -31.72240000     -75.00100000
H      -43.90760000     -29.67720000     -74.17880000
H      -44.75580000     -32.84470000     -71.44410000
H      -43.62020000     -33.76110000     -75.58310000
H      -43.42670000     -31.27200000     -75.98970000
C      -44.32170000     -35.04650000     -73.34600000
H      -43.78810000     -35.42370000     -72.44220000
H      -43.82430000     -35.53550000     -74.26640000
C      -44.52690000     -30.25030000     -71.62220000
H      -44.08920000     -30.71270000     -70.65570000
H      -44.01480000     -29.36030000     -71.85740000
S      -45.99440000     -35.80310000     -73.57120000
S      -46.37200000     -29.79190000     -71.40530000
C      -47.30910000     -34.85620000     -72.75330000
H      -47.09710000     -33.83720000     -72.78190000
H      -48.18840000     -35.09320000     -73.34950000
C      -47.27770000     -31.38550000     -71.38420000
H      -46.92280000     -31.97630000     -72.18930000
H      -48.27920000     -31.10670000     -71.64230000
C      -47.35060000     -32.07010000     -69.93990000
H      -47.67020000     -31.38590000     -69.16440000
H      -48.18100000     -32.80800000     -70.04890000
C      -47.49500000     -35.19490000     -71.28780000
H      -47.92290000     -36.22240000     -71.23440000
H      -48.20140000     -34.50550000     -70.79010000
C      -46.21670000     -35.24100000     -70.52750000
C      -45.43080000     -36.37100000     -70.40830000
C      -45.72290000     -34.15330000     -69.67860000
H      -45.63610000     -37.31400000     -70.84920000
C      -44.68700000     -34.60720000     -68.83610000
C      -46.11400000     -32.77460000     -69.47950000
C      -45.24240000     -32.24250000     -68.59410000
S      -44.27850000     -36.26220000     -69.08250000
S      -43.93380000     -33.31530000     -68.04770000
H      -45.17350000     -31.22590000     -68.26150000
