40
Properties=species:S:1:pos:R:3 #=T CELL(abcABC):=T 1.889726e+02=T 90.00000=T Traj:=T positionsangstrom=T Step:=T 0=T Bead:=T pbc="F F F"
C      -45.16340000     -30.86510000     -74.16350000
C      -44.79900000     -31.51470000     -72.97660000
C      -45.77030000     -32.08210000     -72.15740000
C      -47.12120000     -31.87480000     -72.41970000
C      -47.54480000     -31.16780000     -73.59950000
C      -46.52650000     -30.70210000     -74.45470000
H      -44.46310000     -30.52220000     -74.88560000
H      -45.57530000     -32.49190000     -71.30230000
H      -48.65540000     -31.11550000     -73.84090000
H      -46.89160000     -30.19550000     -75.34240000
C      -48.24940000     -32.37530000     -71.56640000
H      -49.14410000     -31.77650000     -71.59720000
H      -47.87490000     -32.46720000     -70.58980000
C      -43.36970000     -31.63620000     -72.61790000
H      -42.70330000     -30.84110000     -72.96200000
H      -43.07940000     -31.65190000     -71.46670000
S      -48.83980000     -34.16480000     -72.05590000
S      -42.72260000     -33.12340000     -73.46570000
C      -47.30510000     -35.21870000     -71.96840000
H      -47.56490000     -36.02210000     -72.63850000
H      -46.50540000     -34.61230000     -72.35430000
C      -43.90930000     -34.50580000     -73.10530000
H      -44.03900000     -35.05670000     -74.06700000
H      -44.90130000     -34.03070000     -73.12130000
C      -43.65830000     -35.50490000     -71.99460000
H      -44.33990000     -36.36890000     -72.04950000
H      -42.68550000     -35.92190000     -72.12710000
C      -46.77110000     -35.90980000     -70.72880000
H      -46.08450000     -36.71760000     -71.05050000
H      -47.60350000     -36.53860000     -70.21240000
C      -46.13610000     -34.96830000     -69.75560000
C      -46.81980000     -34.36790000     -68.72300000
C      -44.76780000     -34.59190000     -69.83000000
H      -47.91970000     -34.36820000     -68.55140000
C      -44.37610000     -33.59870000     -68.87710000
C      -43.60700000     -34.86270000     -70.62420000
C      -42.40120000     -34.23980000     -70.18280000
S      -45.78840000     -33.19930000     -67.95010000
S      -42.65510000     -33.23380000     -68.85520000
H      -41.42010000     -34.50440000     -70.66400000
