40
Properties=species:S:1:pos:R:3 #=T CELL(abcABC):=T 1.889726e+02=T 90.00000=T Traj:=T positionsangstrom=T Step:=T 0=T Bead:=T pbc="F F F"
C      -44.30240000     -30.84960000     -74.13380000
C      -44.17910000     -31.32970000     -72.80350000
C      -44.06800000     -32.71520000     -72.61210000
C      -44.10370000     -33.59830000     -73.69980000
C      -44.24330000     -33.10900000     -74.96990000
C      -44.30830000     -31.72750000     -75.19270000
H      -44.23400000     -29.78940000     -74.32800000
H      -44.12520000     -33.17070000     -71.64320000
H      -44.34440000     -33.82640000     -75.90130000
H      -44.38160000     -31.33910000     -76.13910000
C      -44.08960000     -35.03120000     -73.47010000
H      -43.72260000     -35.21590000     -72.36150000
H      -43.36990000     -35.59250000     -74.10980000
C      -44.17380000     -30.28450000     -71.74000000
H      -43.61730000     -30.59790000     -70.86160000
H      -43.66060000     -29.31650000     -72.12810000
S      -45.74350000     -35.88370000     -73.67920000
S      -45.89430000     -29.71980000     -71.25650000
C      -47.11050000     -34.79940000     -72.82630000
H      -46.74490000     -33.75480000     -72.72540000
H      -47.97410000     -34.66570000     -73.45230000
C      -47.10320000     -31.17510000     -71.41690000
H      -46.55640000     -31.84800000     -72.12510000
H      -47.97410000     -30.69090000     -71.84550000
C      -47.41570000     -31.99860000     -70.10870000
H      -47.68710000     -31.36630000     -69.26010000
H      -48.24330000     -32.55380000     -70.40120000
C      -47.47700000     -35.42060000     -71.45140000
H      -47.76100000     -36.50150000     -71.62490000
H      -48.39460000     -34.87820000     -71.15710000
C      -46.40200000     -35.43210000     -70.37230000
C      -45.65540000     -36.54460000     -69.99640000
C      -45.98980000     -34.21890000     -69.57350000
H      -45.61470000     -37.54490000     -70.45640000
C      -44.90570000     -34.54300000     -68.74630000
C      -46.33990000     -32.81950000     -69.45920000
C      -45.43550000     -32.10250000     -68.72350000
S      -44.46640000     -36.24130000     -68.73300000
S      -44.19760000     -33.09520000     -68.07240000
H      -45.46830000     -31.03650000     -68.45430000
