40
Properties=species:S:1:pos:R:3 #=T CELL(abcABC):=T 1.889726e+02=T 90.00000=T Traj:=T positionsangstrom=T Step:=T 0=T Bead:=T pbc="F F F"
C      -42.33670000     -31.03270000     -69.40810000
C      -43.35370000     -30.83250000     -70.42270000
C      -44.69140000     -30.96980000     -70.03870000
C      -45.02940000     -31.38150000     -68.72140000
C      -44.02990000     -31.64150000     -67.76730000
C      -42.66880000     -31.51150000     -68.14280000
H      -41.32040000     -30.87320000     -69.64060000
H      -45.42720000     -30.57200000     -70.83060000
H      -44.24440000     -32.14090000     -66.83140000
H      -41.88980000     -31.61140000     -67.29800000
C      -46.48490000     -31.54800000     -68.43990000
H      -47.09060000     -31.57120000     -69.37110000
H      -46.98090000     -30.85580000     -67.77910000
C      -42.97390000     -30.15370000     -71.73600000
H      -42.88930000     -29.10850000     -71.55590000
H      -42.04610000     -30.58200000     -72.15850000
S      -46.85070000     -33.22060000     -67.89400000
S      -44.22660000     -30.14580000     -73.05500000
C      -46.57220000     -34.21110000     -69.49550000
H      -46.94240000     -35.22070000     -69.12760000
H      -47.35300000     -33.81460000     -70.21950000
C      -44.57150000     -31.99720000     -73.26840000
H      -43.87840000     -32.48350000     -72.65230000
H      -44.30160000     -32.23970000     -74.31460000
C      -45.99190000     -32.36040000     -72.98920000
H      -46.24260000     -32.26740000     -71.92000000
H      -46.82710000     -31.84950000     -73.58250000
C      -45.23850000     -34.29400000     -70.10820000
H      -44.46010000     -34.41950000     -69.34610000
H      -45.02160000     -33.28110000     -70.53390000
C      -45.32890000     -35.28400000     -71.28040000
C      -45.12720000     -36.62500000     -71.05120000
C      -45.85900000     -35.05980000     -72.60280000
H      -44.71490000     -37.04360000     -70.14690000
C      -46.17520000     -36.24490000     -73.21230000
C      -46.21190000     -33.85410000     -73.31260000
C      -46.75400000     -34.20060000     -74.54450000
S      -45.71490000     -37.72580000     -72.39080000
S      -46.94820000     -35.85500000     -74.75470000
H      -47.02890000     -33.48520000     -75.35920000
