40
Properties=species:S:1:pos:R:3 #=T CELL(abcABC):=T 1.889726e+02=T 90.00000=T Traj:=T positionsangstrom=T Step:=T 0=T Bead:=T pbc="F F F"
C      -42.44290000     -30.92430000     -69.33710000
C      -43.39780000     -30.72040000     -70.30170000
C      -44.76810000     -30.78190000     -69.94510000
C      -45.11220000     -31.26490000     -68.68690000
C      -44.11370000     -31.47860000     -67.69580000
C      -42.81980000     -31.30230000     -68.06710000
H      -41.36070000     -30.92810000     -69.63750000
H      -45.60010000     -30.73370000     -70.66970000
H      -44.42560000     -31.82460000     -66.74790000
H      -42.04580000     -31.52890000     -67.27730000
C      -46.49080000     -31.62900000     -68.30810000
H      -47.20680000     -31.14110000     -68.96790000
H      -46.67950000     -31.22670000     -67.28140000
C      -42.95770000     -30.39480000     -71.74410000
H      -42.46540000     -29.37520000     -71.70820000
H      -42.11460000     -30.99650000     -71.99380000
S      -46.96450000     -33.45350000     -67.95150000
S      -44.27280000     -30.15790000     -72.99400000
C      -46.67840000     -34.40600000     -69.46490000
H      -46.82880000     -35.40920000     -69.26480000
H      -47.39860000     -34.16410000     -70.18080000
C      -44.61340000     -31.86980000     -73.44200000
H      -43.84950000     -32.62140000     -73.15560000
H      -44.64760000     -31.84430000     -74.54140000
C      -45.94370000     -32.42550000     -72.88700000
H      -45.98450000     -32.25060000     -71.84290000
H      -46.72400000     -31.70320000     -73.31530000
C      -45.26210000     -34.36250000     -70.06010000
H      -44.63240000     -34.75770000     -69.25520000
H      -44.99330000     -33.36320000     -70.41560000
C      -45.31100000     -35.29590000     -71.27270000
C      -45.24400000     -36.65300000     -71.06940000
C      -45.78000000     -35.02300000     -72.62030000
H      -45.27540000     -37.11390000     -70.15270000
C      -45.92800000     -36.20040000     -73.35800000
C      -46.14290000     -33.79950000     -73.32030000
C      -46.70020000     -34.13380000     -74.53470000
S      -45.74850000     -37.64460000     -72.44700000
S      -46.62490000     -35.86530000     -74.89260000
H      -46.88930000     -33.29380000     -75.27850000
