40
Properties=species:S:1:pos:R:3 #=T CELL(abcABC):=T 1.889726e+02=T 90.00000=T Traj:=T positionsangstrom=T Step:=T 0=T Bead:=T pbc="F F F"
C      -43.91570000     -31.28290000     -73.94880000
C      -43.76550000     -31.86410000     -72.71610000
C      -43.89100000     -33.27120000     -72.56780000
C      -44.15300000     -34.12640000     -73.67220000
C      -44.27890000     -33.48410000     -74.93420000
C      -44.09990000     -32.11760000     -75.07360000
H      -43.82590000     -30.17330000     -74.09680000
H      -43.80890000     -33.69810000     -71.51950000
H      -44.55010000     -34.15920000     -75.78230000
H      -44.23170000     -31.64500000     -76.02710000
C      -44.42770000     -35.63430000     -73.41460000
H      -43.94530000     -36.23250000     -72.59180000
H      -44.01300000     -36.14900000     -74.31270000
C      -43.58160000     -30.97520000     -71.51360000
H      -43.35480000     -31.60000000     -70.62830000
H      -42.71010000     -30.28340000     -71.58540000
S      -46.24590000     -35.96610000     -73.65710000
S      -45.03750000     -29.78950000     -71.13390000
C      -47.19710000     -34.53490000     -73.04540000
H      -46.65570000     -33.62750000     -73.11200000
H      -47.95610000     -34.34930000     -73.85230000
C      -46.53850000     -30.90000000     -71.53610000
H      -46.27600000     -31.64260000     -72.21520000
H      -47.24700000     -30.20440000     -72.04280000
C      -47.25800000     -31.58340000     -70.26240000
H      -47.73610000     -30.83160000     -69.66530000
H      -48.13760000     -32.07660000     -70.59830000
C      -47.65620000     -34.71830000     -71.60440000
H      -48.24850000     -35.64460000     -71.62340000
H      -48.25440000     -33.78820000     -71.46630000
C      -46.46000000     -34.82990000     -70.67870000
C      -45.86030000     -36.04270000     -70.42180000
C      -46.09310000     -33.76360000     -69.77190000
H      -46.06670000     -37.02560000     -70.89420000
C      -45.11170000     -34.29150000     -68.85310000
C      -46.36100000     -32.44900000     -69.47020000
C      -45.70130000     -31.96210000     -68.32590000
S      -44.74320000     -35.92710000     -69.08830000
S      -44.67160000     -33.19550000     -67.63580000
H      -45.59250000     -30.95050000     -68.02430000
