40
Properties=species:S:1:pos:R:3 #=T CELL(abcABC):=T 1.889726e+02=T 90.00000=T Traj:=T positionsangstrom=T Step:=T 0=T Bead:=T pbc="F F F"
C      -42.70140000     -31.88550000     -73.70300000
C      -43.33330000     -32.17120000     -72.49080000
C      -44.06980000     -33.34270000     -72.35530000
C      -44.21380000     -34.19830000     -73.44910000
C      -43.51100000     -33.94200000     -74.62980000
C      -42.78600000     -32.77050000     -74.73830000
H      -42.04640000     -30.99490000     -73.64060000
H      -44.59270000     -33.62390000     -71.39870000
H      -43.54640000     -34.46170000     -75.59780000
H      -42.34720000     -32.48080000     -75.65110000
C      -44.90630000     -35.52030000     -73.28330000
H      -45.01080000     -35.68920000     -72.18990000
H      -44.50370000     -36.45640000     -73.83410000
C      -43.22400000     -31.23970000     -71.29640000
H      -43.21900000     -31.78410000     -70.36790000
H      -42.27900000     -30.62220000     -71.22470000
S      -46.56870000     -35.26930000     -74.09270000
S      -44.48680000     -29.83560000     -71.35520000
C      -47.37090000     -33.93050000     -73.01830000
H      -46.50640000     -33.25030000     -72.81960000
H      -48.07540000     -33.42420000     -73.69800000
C      -46.10410000     -30.76210000     -71.42890000
H      -46.00680000     -31.63630000     -72.04480000
H      -46.76460000     -30.11050000     -71.97080000
C      -46.90110000     -31.17250000     -70.16380000
H      -47.11060000     -30.29810000     -69.51070000
H      -47.96240000     -31.35650000     -70.38890000
C      -48.15910000     -34.29770000     -71.71300000
H      -48.85100000     -35.08260000     -71.89400000
H      -48.90000000     -33.48310000     -71.52340000
C      -47.22100000     -34.57890000     -70.53900000
C      -46.86330000     -35.93240000     -70.45980000
C      -46.38390000     -33.70610000     -69.71120000
H      -47.28980000     -36.78930000     -71.02030000
C      -45.53070000     -34.46390000     -68.91760000
C      -46.22040000     -32.31670000     -69.43790000
C      -45.28300000     -32.04020000     -68.46460000
S      -45.59500000     -36.13030000     -69.19670000
S      -44.71400000     -33.52370000     -67.72550000
H      -45.08060000     -31.09360000     -68.02110000
