40
Properties=species:S:1:pos:R:3 #=T CELL(abcABC):=T 1.889726e+02=T 90.00000=T Traj:=T positionsangstrom=T Step:=T 0=T Bead:=T pbc="F F F"
C      -42.50150000     -32.09540000     -73.62090000
C      -42.86540000     -32.45600000     -72.36030000
C      -43.71210000     -33.57570000     -72.08390000
C      -44.27100000     -34.28240000     -73.16570000
C      -43.98260000     -33.79160000     -74.52740000
C      -43.08240000     -32.78970000     -74.75350000
H      -41.80200000     -31.29330000     -73.76850000
H      -43.92250000     -33.81220000     -71.05000000
H      -44.41300000     -34.34230000     -75.33950000
H      -42.96900000     -32.47840000     -75.74520000
C      -45.29910000     -35.44490000     -73.03870000
H      -45.47390000     -35.68730000     -71.97570000
H      -44.74830000     -36.30060000     -73.44360000
C      -42.35850000     -31.57490000     -71.23970000
H      -42.27660000     -32.08680000     -70.27460000
H      -41.35850000     -31.16630000     -71.43960000
S      -46.84630000     -35.07890000     -73.95650000
S      -43.49100000     -30.08850000     -70.84330000
C      -47.32670000     -33.44250000     -73.33380000
H      -46.46170000     -32.87630000     -73.21200000
H      -47.85750000     -32.91840000     -74.13730000
C      -45.18350000     -30.61810000     -71.40130000
H      -44.95770000     -31.47520000     -72.00710000
H      -45.68430000     -29.87380000     -71.96110000
C      -46.17150000     -31.02970000     -70.33460000
H      -46.08050000     -30.25780000     -69.57280000
H      -47.23020000     -31.05400000     -70.65430000
C      -48.12170000     -33.34480000     -71.95740000
H      -49.17260000     -33.77170000     -72.02860000
H      -48.35470000     -32.28610000     -71.75390000
C      -47.51240000     -34.07030000     -70.83690000
C      -47.81260000     -35.37420000     -70.55530000
C      -46.50890000     -33.60190000     -69.90350000
H      -48.58570000     -35.91410000     -71.20180000
C      -45.98600000     -34.62500000     -69.11320000
C      -45.85030000     -32.35340000     -69.64420000
C      -44.93390000     -32.38210000     -68.62870000
S      -46.82890000     -36.18440000     -69.33550000
S      -44.82570000     -34.04760000     -67.93970000
H      -44.31100000     -31.56440000     -68.28540000
