40
Properties=species:S:1:pos:R:3 #=T CELL(abcABC):=T 1.889726e+02=T 90.00000=T Traj:=T positionsangstrom=T Step:=T 0=T Bead:=T pbc="F F F"
C      -43.22070000     -31.17880000     -69.14390000
C      -44.32520000     -30.45210000     -69.77290000
C      -45.58660000     -30.82460000     -69.39200000
C      -45.86780000     -31.86300000     -68.42270000
C      -44.76470000     -32.50560000     -67.79480000
C      -43.46670000     -32.11060000     -68.09940000
H      -42.20850000     -30.82780000     -69.27230000
H      -46.44870000     -30.24510000     -69.81380000
H      -44.85270000     -33.39650000     -67.19870000
H      -42.61290000     -32.72670000     -67.78460000
C      -47.26470000     -32.24170000     -68.09630000
H      -48.06260000     -31.79940000     -68.77580000
H      -47.47230000     -31.93870000     -67.02000000
C      -44.00520000     -29.32150000     -70.73920000
H      -44.41080000     -28.35260000     -70.54860000
H      -42.88110000     -29.30900000     -70.81360000
S      -47.65800000     -34.02820000     -68.08460000
S      -44.63930000     -29.65960000     -72.38730000
C      -47.48080000     -34.56520000     -69.82150000
H      -48.02680000     -35.48520000     -69.93550000
H      -47.94110000     -33.78960000     -70.47220000
C      -43.93740000     -31.19130000     -72.96500000
H      -42.92740000     -31.35020000     -72.67000000
H      -43.92570000     -31.09660000     -74.12300000
C      -44.82240000     -32.35210000     -72.54090000
H      -44.71460000     -32.45180000     -71.44250000
H      -45.87320000     -32.13970000     -72.66630000
C      -46.01140000     -34.75070000     -70.28260000
H      -45.48830000     -35.15190000     -69.42390000
H      -45.59530000     -33.71170000     -70.33030000
C      -45.88330000     -35.48460000     -71.60510000
C      -46.44610000     -36.72310000     -71.74130000
C      -45.26060000     -34.98920000     -72.77910000
H      -46.89090000     -37.34760000     -70.92930000
C      -45.10450000     -35.95970000     -73.72790000
C      -44.64650000     -33.72000000     -73.19130000
C      -44.02420000     -33.83110000     -74.44580000
S      -45.99010000     -37.42790000     -73.36880000
S      -44.26740000     -35.48420000     -75.13180000
H      -43.64080000     -33.07240000     -75.11210000
