40
Properties=species:S:1:pos:R:3 #=T CELL(abcABC):=T 1.889726e+02=T 90.00000=T Traj:=T positionsangstrom=T Step:=T 0=T Bead:=T pbc="F F F"
C      -42.61230000     -31.91910000     -73.70110000
C      -42.91140000     -32.37810000     -72.38250000
C      -43.65520000     -33.51510000     -72.13830000
C      -44.13070000     -34.27410000     -73.19820000
C      -43.91120000     -33.85410000     -74.55170000
C      -43.18770000     -32.64090000     -74.79140000
H      -42.08930000     -30.90290000     -73.74040000
H      -43.96360000     -33.74120000     -71.08180000
H      -44.43190000     -34.22920000     -75.42800000
H      -42.99770000     -32.31720000     -75.83050000
C      -45.17440000     -35.31470000     -72.96250000
H      -45.45320000     -35.39370000     -71.88180000
H      -45.00040000     -36.33590000     -73.21080000
C      -42.42260000     -31.66320000     -71.20470000
H      -42.32980000     -32.37650000     -70.32380000
H      -41.48550000     -31.14580000     -71.30900000
S      -46.76070000     -34.98040000     -73.90140000
S      -43.57480000     -30.23470000     -70.80100000
C      -47.37790000     -33.41740000     -73.28190000
H      -46.47540000     -32.72770000     -73.06940000
H      -48.00840000     -33.02080000     -74.07050000
C      -45.27410000     -30.63010000     -71.43240000
H      -44.96300000     -31.47810000     -72.21150000
H      -45.66390000     -29.78680000     -72.02670000
C      -46.24720000     -31.01520000     -70.36180000
H      -46.32430000     -30.11690000     -69.69710000
H      -47.24910000     -30.93740000     -70.81550000
C      -48.22630000     -33.59590000     -71.98540000
H      -49.11800000     -34.30950000     -72.26870000
H      -48.66330000     -32.67260000     -71.67680000
C      -47.53090000     -34.22760000     -70.81910000
C      -47.60140000     -35.61060000     -70.62170000
C      -46.57010000     -33.65290000     -69.90410000
H      -48.23350000     -36.31940000     -71.16120000
C      -46.08850000     -34.60730000     -69.05200000
C      -46.00250000     -32.33210000     -69.64590000
C      -45.05300000     -32.38850000     -68.67750000
S      -46.62970000     -36.17500000     -69.29650000
S      -44.79580000     -33.93500000     -67.98950000
H      -44.62750000     -31.51840000     -68.26270000
