40
Properties=species:S:1:pos:R:3 #=T CELL(abcABC):=T 1.889726e+02=T 90.00000=T Traj:=T positionsangstrom=T Step:=T 0=T Bead:=T pbc="F F F"
C      -42.66910000     -31.86190000     -73.63490000
C      -43.26200000     -32.30340000     -72.36450000
C      -44.04820000     -33.47760000     -72.34550000
C      -44.20930000     -34.20450000     -73.58970000
C      -43.58640000     -33.78090000     -74.77320000
C      -42.84030000     -32.61750000     -74.75830000
H      -42.02390000     -30.97400000     -73.65430000
H      -44.52900000     -33.91210000     -71.45160000
H      -43.71140000     -34.21790000     -75.67530000
H      -42.21620000     -32.35560000     -75.64170000
C      -44.91200000     -35.48620000     -73.53020000
H      -44.79230000     -36.02070000     -72.54240000
H      -44.40030000     -36.09770000     -74.21590000
C      -43.21100000     -31.36900000     -71.11240000
H      -43.41960000     -31.89410000     -70.12360000
H      -42.20950000     -31.05420000     -71.13330000
S      -46.71720000     -35.24920000     -73.94260000
S      -44.34660000     -29.93950000     -71.16440000
C      -47.18320000     -33.69850000     -73.21360000
H      -46.26880000     -33.07980000     -73.08470000
H      -47.86510000     -33.15590000     -73.88380000
C      -45.96680000     -30.67260000     -71.60060000
H      -45.87770000     -31.51600000     -72.27430000
H      -46.52430000     -29.93950000     -72.06750000
C      -46.62850000     -31.11480000     -70.30020000
H      -46.69500000     -30.27270000     -69.61020000
H      -47.65380000     -31.43720000     -70.64310000
C      -47.91040000     -33.85390000     -71.89310000
H      -48.81020000     -34.56580000     -72.04420000
H      -48.18370000     -32.87190000     -71.56610000
C      -47.11510000     -34.43850000     -70.71570000
C      -47.17330000     -35.78230000     -70.37890000
C      -46.33420000     -33.74670000     -69.75550000
H      -47.61600000     -36.60150000     -71.06160000
C      -45.67230000     -34.52390000     -68.83960000
C      -45.99500000     -32.36010000     -69.52900000
C      -45.11760000     -32.10080000     -68.46340000
S      -46.04320000     -36.24100000     -69.07300000
S      -44.69240000     -33.70380000     -67.75690000
H      -44.76070000     -31.21960000     -68.00490000
