40
Properties=species:S:1:pos:R:3 #=T CELL(abcABC):=T 1.889726e+02=T 90.00000=T Traj:=T positionsangstrom=T Step:=T 0=T Bead:=T pbc="F F F"
C      -42.56430000     -31.86300000     -73.60830000
C      -43.09560000     -32.30190000     -72.40020000
C      -43.98950000     -33.43140000     -72.37450000
C      -44.18800000     -34.09850000     -73.54300000
C      -43.75340000     -33.66430000     -74.83280000
C      -42.91770000     -32.52910000     -74.84780000
H      -41.84700000     -31.07710000     -73.71360000
H      -44.38630000     -33.85520000     -71.47230000
H      -43.89240000     -34.32080000     -75.73450000
H      -42.58110000     -32.02100000     -75.73950000
C      -44.95180000     -35.40190000     -73.50390000
H      -44.69020000     -35.85110000     -72.57890000
H      -44.61470000     -36.10730000     -74.32670000
C      -42.75920000     -31.62990000     -71.14020000
H      -42.83150000     -32.24950000     -70.29230000
H      -41.71180000     -31.22210000     -71.10460000
S      -46.72560000     -35.25040000     -73.91710000
S      -43.78530000     -30.08100000     -70.89200000
C      -47.35070000     -33.68280000     -73.13200000
H      -46.47440000     -32.98590000     -72.95710000
H      -48.01110000     -33.09570000     -73.88090000
C      -45.49810000     -30.56950000     -71.49050000
H      -45.33210000     -31.32420000     -72.21300000
H      -45.82840000     -29.60700000     -71.94420000
C      -46.49380000     -31.08560000     -70.38520000
H      -46.70570000     -30.27910000     -69.64190000
H      -47.44710000     -31.27880000     -70.79820000
C      -48.23390000     -33.86270000     -71.81980000
H      -49.09710000     -34.44730000     -72.07940000
H      -48.69420000     -32.89140000     -71.39160000
C      -47.41300000     -34.42300000     -70.69950000
C      -47.44540000     -35.79790000     -70.41940000
C      -46.52840000     -33.71600000     -69.84150000
H      -48.05840000     -36.55460000     -70.85560000
C      -45.91580000     -34.56430000     -68.92260000
C      -46.05890000     -32.36700000     -69.65860000
C      -45.16900000     -32.21830000     -68.63240000
S      -46.39800000     -36.19320000     -69.07500000
S      -44.72950000     -33.70200000     -67.87050000
H      -44.61670000     -31.27100000     -68.34170000
