40
Properties=species:S:1:pos:R:3 #=T CELL(abcABC):=T 1.889726e+02=T 90.00000=T Traj:=T positionsangstrom=T Step:=T 0=T Bead:=T pbc="F F F"
C      -43.80190000     -36.31360000     -69.43600000
C      -42.99330000     -35.19210000     -69.42520000
C      -42.32340000     -34.79150000     -70.58180000
C      -42.59190000     -35.42230000     -71.79740000
C      -43.34470000     -36.56680000     -71.80890000
C      -43.92480000     -37.08410000     -70.63180000
H      -44.52150000     -36.56170000     -68.68340000
H      -41.53690000     -33.98430000     -70.59050000
H      -43.46970000     -37.12180000     -72.69880000
H      -44.60750000     -37.91470000     -70.55630000
C      -42.03490000     -34.90980000     -73.08540000
H      -41.47900000     -35.55190000     -73.69480000
H      -41.22160000     -34.12330000     -72.79510000
C      -42.77080000     -34.32220000     -68.20280000
H      -43.09520000     -34.86480000     -67.31030000
H      -41.68170000     -34.03480000     -68.21340000
S      -43.35210000     -34.24880000     -74.12740000
S      -43.63570000     -32.68300000     -68.24400000
C      -43.56680000     -32.47540000     -73.33910000
H      -42.61680000     -32.25290000     -72.82830000
H      -43.57840000     -31.76640000     -74.15360000
C      -45.32990000     -32.97620000     -69.03170000
H      -45.90440000     -33.76210000     -68.40820000
H      -45.14530000     -33.45750000     -70.05350000
C      -45.98360000     -31.61780000     -69.18080000
H      -46.48950000     -31.27400000     -68.28520000
H      -45.19080000     -30.93950000     -69.48130000
C      -44.61420000     -32.24780000     -72.35980000
H      -44.38410000     -31.28890000     -71.96750000
H      -44.33760000     -32.91380000     -71.61360000
C      -46.07760000     -32.32110000     -72.63400000
C      -46.71580000     -32.73280000     -73.84870000
C      -47.11620000     -32.00290000     -71.61470000
H      -46.22220000     -33.15500000     -74.64200000
C      -48.41680000     -32.16660000     -72.09200000
C      -47.13290000     -31.66860000     -70.19770000
C      -48.39810000     -31.43550000     -69.75490000
S      -48.42450000     -32.65140000     -73.80220000
S      -49.63020000     -31.75990000     -70.92760000
H      -48.70210000     -31.29330000     -68.73420000
