40
Properties=species:S:1:pos:R:3 #=T CELL(abcABC):=T 1.889726e+02=T 90.00000=T Traj:=T positionsangstrom=T Step:=T 0=T Bead:=T pbc="F F F"
C      -43.92770000     -31.79530000     -68.39930000
C      -44.69020000     -30.92880000     -69.23210000
C      -46.06950000     -31.04610000     -69.21730000
C      -46.72440000     -32.00740000     -68.37100000
C      -45.96580000     -32.85070000     -67.55710000
C      -44.57790000     -32.62120000     -67.48870000
H      -42.85600000     -31.78380000     -68.33940000
H      -46.68880000     -30.31730000     -69.81390000
H      -46.39910000     -33.64890000     -66.86950000
H      -44.01350000     -33.19480000     -66.76600000
C      -48.13120000     -32.33950000     -68.66000000
H      -48.58720000     -31.67940000     -69.48760000
H      -48.76260000     -32.11560000     -67.72610000
C      -43.89820000     -29.95030000     -70.18100000
H      -43.79680000     -28.98530000     -69.62880000
H      -42.87940000     -30.37670000     -70.26150000
S      -48.49650000     -34.04620000     -69.13310000
S      -44.66430000     -29.51480000     -71.82720000
C      -47.40800000     -34.34700000     -70.61720000
H      -47.89750000     -35.07200000     -71.22600000
H      -47.47460000     -33.37550000     -71.19630000
C      -45.17700000     -31.16460000     -72.39190000
H      -45.39260000     -31.07440000     -73.43980000
H      -45.98740000     -31.39370000     -71.80180000
C      -44.05250000     -32.27100000     -72.32130000
H      -43.11250000     -31.76960000     -72.55840000
H      -44.00760000     -32.70530000     -71.33140000
C      -45.91990000     -34.68810000     -70.47950000
H      -45.61420000     -35.26570000     -69.54680000
H      -45.30750000     -33.76930000     -70.37150000
C      -45.36070000     -35.34620000     -71.70530000
C      -45.61590000     -36.66720000     -71.91720000
C      -44.65730000     -34.79160000     -72.87400000
H      -46.29090000     -37.28780000     -71.40230000
C      -44.39900000     -35.70590000     -73.88530000
C      -44.12610000     -33.51600000     -73.25900000
C      -43.49540000     -33.49200000     -74.49740000
S      -45.03510000     -37.30620000     -73.42900000
S      -43.45360000     -35.11000000     -75.19600000
H      -42.93880000     -32.74100000     -75.03490000
