40
Properties=species:S:1:pos:R:3 #=T CELL(abcABC):=T 1.889726e+02=T 90.00000=T Traj:=T positionsangstrom=T Step:=T 0=T Bead:=T pbc="F F F"
C      -43.25720000     -31.46140000     -68.65150000
C      -44.20450000     -30.81080000     -69.49120000
C      -45.54320000     -31.06570000     -69.30780000
C      -46.07850000     -31.81430000     -68.30730000
C      -45.15180000     -32.54250000     -67.53640000
C      -43.79930000     -32.37870000     -67.71390000
H      -42.19620000     -31.43390000     -68.70160000
H      -46.25070000     -30.48920000     -69.93420000
H      -45.44430000     -33.01800000     -66.59470000
H      -43.12180000     -32.79290000     -66.93430000
C      -47.53200000     -32.07720000     -68.21120000
H      -48.11150000     -31.53510000     -69.00470000
H      -47.86350000     -31.88120000     -67.15640000
C      -43.69610000     -29.91600000     -70.54390000
H      -43.44890000     -28.90620000     -70.18050000
H      -42.78050000     -30.28280000     -70.97900000
S      -47.93770000     -33.86400000     -68.49300000
S      -44.84920000     -29.57100000     -72.02210000
C      -47.33450000     -34.16010000     -70.22750000
H      -48.09500000     -34.72800000     -70.81060000
H      -47.27510000     -33.21110000     -70.73090000
C      -44.64710000     -31.06440000     -73.11830000
H      -43.72880000     -31.05540000     -73.61750000
H      -45.50990000     -31.03330000     -73.76340000
C      -44.63730000     -32.38790000     -72.33230000
H      -43.83860000     -32.54680000     -71.56970000
H      -45.60000000     -32.39710000     -71.75270000
C      -46.01540000     -34.98090000     -70.28380000
H      -46.25730000     -35.83440000     -69.57040000
H      -45.16580000     -34.36370000     -69.90330000
C      -45.74020000     -35.57650000     -71.68370000
C      -46.13170000     -36.87300000     -72.00280000
C      -45.10270000     -34.92960000     -72.83760000
H      -46.51050000     -37.61010000     -71.31850000
C      -44.96560000     -35.86590000     -73.88380000
C      -44.55490000     -33.66070000     -73.18490000
C      -43.95160000     -33.67440000     -74.41060000
S      -45.60290000     -37.44420000     -73.53900000
S      -44.06180000     -35.22640000     -75.26450000
H      -43.37960000     -32.79470000     -74.72600000
