40
Properties=species:S:1:pos:R:3 #=T CELL(abcABC):=T 1.889726e+02=T 90.00000=T Traj:=T positionsangstrom=T Step:=T 0=T Bead:=T pbc="F F F"
C      -44.00520000     -31.87360000     -68.26060000
C      -44.76600000     -31.00080000     -69.08530000
C      -46.14170000     -31.22120000     -69.16080000
C      -46.77290000     -32.26350000     -68.46700000
C      -46.02520000     -33.07170000     -67.55290000
C      -44.66320000     -32.87800000     -67.55240000
H      -42.94750000     -31.68240000     -67.99690000
H      -46.64150000     -30.56210000     -69.82390000
H      -46.45750000     -33.72270000     -66.84970000
H      -44.04650000     -33.29410000     -66.75700000
C      -48.22790000     -32.52540000     -68.71050000
H      -48.56860000     -31.68620000     -69.36860000
H      -48.89460000     -32.51140000     -67.78800000
C      -44.04220000     -29.89510000     -69.86690000
H      -44.13630000     -28.92610000     -69.30760000
H      -42.96190000     -30.06580000     -69.95260000
S      -48.76090000     -34.17320000     -69.47800000
S      -44.84760000     -29.63150000     -71.53450000
C      -47.63690000     -34.44520000     -70.96130000
H      -48.12250000     -35.37980000     -71.41920000
H      -47.76600000     -33.66800000     -71.69620000
C      -45.12690000     -31.25420000     -72.29150000
H      -45.30940000     -30.95630000     -73.27960000
H      -46.01310000     -31.75930000     -71.86120000
C      -43.89570000     -32.14990000     -72.15960000
H      -43.02110000     -31.55860000     -72.31150000
H      -43.78440000     -32.35830000     -71.10450000
C      -46.11190000     -34.66270000     -70.59470000
H      -46.04820000     -35.36020000     -69.73330000
H      -45.62220000     -33.73790000     -70.25190000
C      -45.42470000     -35.20700000     -71.86150000
C      -45.68800000     -36.52850000     -72.21090000
C      -44.43450000     -34.65360000     -72.80690000
H      -46.36430000     -37.24240000     -71.68950000
C      -44.18300000     -35.55250000     -73.81340000
C      -43.79980000     -33.39820000     -73.07950000
C      -43.16390000     -33.34120000     -74.33040000
S      -44.76180000     -37.13890000     -73.57720000
S      -43.26650000     -34.87530000     -75.13020000
H      -42.74870000     -32.43240000     -74.75810000
