40
Properties=species:S:1:pos:R:3 #=T CELL(abcABC):=T 1.889726e+02=T 90.00000=T Traj:=T positionsangstrom=T Step:=T 0=T Bead:=T pbc="F F F"
C      -43.85060000     -31.62070000     -68.45300000
C      -44.59780000     -30.94530000     -69.37870000
C      -46.01530000     -31.08840000     -69.46280000
C      -46.62650000     -32.03750000     -68.53530000
C      -45.83410000     -32.63020000     -67.51650000
C      -44.44580000     -32.44140000     -67.49820000
H      -42.74550000     -31.47540000     -68.41150000
H      -46.63120000     -30.58430000     -70.18340000
H      -46.32490000     -33.44130000     -66.93310000
H      -43.91180000     -32.81250000     -66.61150000
C      -48.11080000     -32.28790000     -68.48490000
H      -48.67940000     -31.69050000     -69.08720000
H      -48.46250000     -32.29680000     -67.49760000
C      -43.86620000     -29.93650000     -70.19970000
H      -43.90430000     -28.96350000     -69.67190000
H      -42.84350000     -30.21480000     -70.26190000
S      -48.34020000     -34.12160000     -69.01930000
S      -44.60980000     -29.56140000     -71.87240000
C      -47.38740000     -34.19300000     -70.63990000
H      -47.96520000     -34.92870000     -71.30350000
H      -47.33940000     -33.23600000     -71.12380000
C      -45.01360000     -31.25100000     -72.73620000
H      -45.09130000     -30.90510000     -73.78360000
H      -46.04940000     -31.71490000     -72.47330000
C      -43.91340000     -32.25010000     -72.37880000
H      -42.91810000     -31.78380000     -72.49190000
H      -43.92030000     -32.33040000     -71.27970000
C      -45.99160000     -34.75420000     -70.44260000
H      -46.09810000     -35.39470000     -69.58750000
H      -45.29610000     -33.95520000     -70.23590000
C      -45.47890000     -35.42290000     -71.63270000
C      -45.82490000     -36.71990000     -71.91120000
C      -44.71420000     -34.80180000     -72.72840000
H      -46.25400000     -37.43120000     -71.24550000
C      -44.52550000     -35.73660000     -73.74540000
C      -44.08340000     -33.49960000     -73.12670000
C      -43.51610000     -33.62200000     -74.35200000
S      -45.15670000     -37.27710000     -73.45350000
S      -43.71260000     -35.14460000     -75.17210000
H      -42.94550000     -32.79660000     -74.76370000
