40
Properties=species:S:1:pos:R:3 #=T CELL(abcABC):=T 1.889726e+02=T 90.00000=T Traj:=T positionsangstrom=T Step:=T 0=T Bead:=T pbc="F F F"
C      -43.16290000     -31.42540000     -68.82520000
C      -44.16190000     -30.72940000     -69.50700000
C      -45.51500000     -30.99380000     -69.30280000
C      -45.93280000     -31.91410000     -68.31960000
C      -44.93470000     -32.39670000     -67.49380000
C      -43.55600000     -32.19250000     -67.70730000
H      -42.09970000     -31.21770000     -68.94250000
H      -46.22860000     -30.63500000     -69.99640000
H      -45.07170000     -33.21110000     -66.74800000
H      -42.78970000     -32.83330000     -67.24040000
C      -47.49220000     -32.15090000     -68.15290000
H      -47.99160000     -31.54830000     -68.83650000
H      -47.91660000     -31.87300000     -67.20030000
C      -43.73400000     -29.72420000     -70.63860000
H      -43.64330000     -28.86680000     -70.02700000
H      -42.73380000     -29.97170000     -71.08970000
S      -47.89770000     -33.96980000     -68.40980000
S      -44.88450000     -29.58100000     -72.03550000
C      -47.55510000     -34.35530000     -70.20250000
H      -48.29620000     -35.10540000     -70.51340000
H      -47.76090000     -33.39490000     -70.75080000
C      -44.43060000     -31.09710000     -73.08110000
H      -43.42050000     -30.84420000     -73.37330000
H      -44.97840000     -31.12180000     -74.11220000
C      -44.80710000     -32.44340000     -72.33610000
H      -44.09120000     -32.50040000     -71.51190000
H      -45.77050000     -32.43880000     -71.83810000
C      -46.15620000     -34.80630000     -70.36690000
H      -45.82790000     -35.47640000     -69.55790000
H      -45.46980000     -34.01850000     -70.32670000
C      -45.83770000     -35.54460000     -71.70970000
C      -46.24520000     -36.81760000     -71.93890000
C      -45.17540000     -34.95830000     -72.88950000
H      -46.65150000     -37.43760000     -71.15780000
C      -44.96750000     -35.93090000     -73.89140000
C      -44.58490000     -33.67370000     -73.17710000
C      -44.00870000     -33.69260000     -74.42930000
S      -45.69620000     -37.47680000     -73.53310000
S      -44.00970000     -35.24730000     -75.22390000
H      -43.68850000     -32.71680000     -74.85250000
