40
Properties=species:S:1:pos:R:3 #=T CELL(abcABC):=T 1.889726e+02=T 90.00000=T Traj:=T positionsangstrom=T Step:=T 0=T Bead:=T pbc="F F F"
C      -43.41070000     -31.50920000     -68.56770000
C      -44.31180000     -30.86660000     -69.48640000
C      -45.68120000     -31.02160000     -69.35670000
C      -46.22640000     -31.89870000     -68.43220000
C      -45.29130000     -32.49440000     -67.50240000
C      -43.89670000     -32.35360000     -67.61330000
H      -42.34680000     -31.49970000     -68.78230000
H      -46.45650000     -30.40370000     -69.98450000
H      -45.64680000     -33.27890000     -66.79470000
H      -43.24940000     -32.81820000     -66.89570000
C      -47.74580000     -32.20010000     -68.22530000
H      -48.34800000     -31.43100000     -68.80030000
H      -47.95070000     -32.14090000     -67.14600000
C      -43.67020000     -29.93350000     -70.53170000
H      -43.50830000     -28.83400000     -70.23300000
H      -42.66910000     -30.28220000     -70.71980000
S      -48.04980000     -33.96340000     -68.69510000
S      -44.73890000     -29.62400000     -71.99190000
C      -47.31520000     -34.10640000     -70.39860000
H      -48.03820000     -34.63500000     -71.01760000
H      -47.10890000     -33.07660000     -70.70050000
C      -44.76670000     -31.19750000     -72.93160000
H      -44.04400000     -31.03490000     -73.84070000
H      -45.75190000     -31.25820000     -73.40640000
C      -44.41700000     -32.45710000     -72.16540000
H      -43.47870000     -32.16490000     -71.74090000
H      -45.08400000     -32.70360000     -71.34170000
C      -45.92140000     -34.84380000     -70.29980000
H      -45.97080000     -35.71870000     -69.67130000
H      -45.16780000     -34.18480000     -69.88130000
C      -45.65370000     -35.50430000     -71.68700000
C      -45.93690000     -36.83680000     -71.84340000
C      -44.94250000     -34.95210000     -72.81750000
H      -46.52010000     -37.39670000     -71.12280000
C      -44.90050000     -35.81080000     -73.89680000
C      -44.44880000     -33.63760000     -73.13240000
C      -43.87590000     -33.62480000     -74.36720000
S      -45.54140000     -37.37540000     -73.54380000
S      -44.09530000     -35.14530000     -75.27630000
H      -43.24960000     -32.86600000     -74.80910000
