40
Properties=species:S:1:pos:R:3 #=T CELL(abcABC):=T 1.889726e+02=T 90.00000=T Traj:=T positionsangstrom=T Step:=T 0=T Bead:=T pbc="F F F"
C      -43.49220000     -31.50570000     -68.50380000
C      -44.38060000     -30.78190000     -69.32410000
C      -45.72870000     -31.00820000     -69.25350000
C      -46.30580000     -31.93270000     -68.36060000
C      -45.43760000     -32.63570000     -67.49360000
C      -44.05450000     -32.34420000     -67.56590000
H      -42.41800000     -31.29550000     -68.40450000
H      -46.30170000     -30.57760000     -70.07000000
H      -45.85800000     -33.32700000     -66.79310000
H      -43.52570000     -33.03410000     -66.91750000
C      -47.75910000     -32.20380000     -68.45960000
H      -48.10640000     -31.54840000     -69.17210000
H      -48.33190000     -31.93900000     -67.58540000
C      -43.82430000     -29.87680000     -70.35050000
H      -43.78410000     -28.94720000     -69.88000000
H      -42.80780000     -30.20110000     -70.56150000
S      -48.23900000     -33.93220000     -68.92770000
S      -44.77980000     -29.58040000     -71.87550000
C      -47.38440000     -34.33550000     -70.43320000
H      -47.97600000     -35.03810000     -70.99120000
H      -47.26540000     -33.48560000     -71.18530000
C      -44.74670000     -31.15310000     -72.91640000
H      -44.28210000     -30.93920000     -73.92510000
H      -45.80140000     -31.29150000     -73.17590000
C      -44.08520000     -32.39410000     -72.30050000
H      -42.98670000     -32.19850000     -72.15550000
H      -44.61070000     -32.56020000     -71.35460000
C      -45.86830000     -34.90050000     -70.32390000
H      -45.80750000     -35.65740000     -69.52610000
H      -45.23300000     -34.06430000     -69.90120000
C      -45.49700000     -35.51370000     -71.64780000
C      -45.85770000     -36.81390000     -71.93590000
C      -44.85280000     -34.89740000     -72.77670000
H      -46.49760000     -37.37210000     -71.25540000
C      -44.75750000     -35.83160000     -73.82690000
C      -44.24630000     -33.61710000     -73.14670000
C      -43.73020000     -33.68150000     -74.39450000
S      -45.50290000     -37.34120000     -73.48460000
S      -44.04340000     -35.16850000     -75.28010000
H      -43.35500000     -32.85550000     -74.98270000
