40
Properties=species:S:1:pos:R:3 #=T CELL(abcABC):=T 1.889726e+02=T 90.00000=T Traj:=T positionsangstrom=T Step:=T 0=T Bead:=T pbc="F F F"
C      -44.31050000     -31.94250000     -68.18720000
C      -45.16580000     -31.04090000     -68.85100000
C      -46.51880000     -31.44970000     -68.94280000
C      -47.06210000     -32.60510000     -68.40380000
C      -46.16600000     -33.38300000     -67.69480000
C      -44.82130000     -33.06120000     -67.54860000
H      -43.26110000     -31.81850000     -68.08300000
H      -47.25240000     -30.76190000     -69.36210000
H      -46.58670000     -34.21020000     -67.10760000
H      -44.09160000     -33.73050000     -67.03230000
C      -48.48130000     -33.05590000     -68.46060000
H      -49.23550000     -32.31070000     -68.76550000
H      -48.82290000     -33.48550000     -67.53270000
C      -44.58460000     -29.81870000     -69.53250000
H      -44.76750000     -28.83350000     -69.00670000
H      -43.47490000     -29.96360000     -69.56080000
S      -48.63080000     -34.59450000     -69.56300000
S      -44.98370000     -29.61630000     -71.34810000
C      -47.59660000     -34.21630000     -71.09220000
H      -48.04700000     -34.76480000     -71.86630000
H      -47.64330000     -33.14940000     -71.35390000
C      -45.07490000     -31.37400000     -72.07510000
H      -45.18170000     -31.10260000     -73.14670000
H      -45.95280000     -31.84870000     -71.72170000
C      -43.80230000     -32.18980000     -71.75350000
H      -42.90060000     -31.61130000     -71.73440000
H      -44.02070000     -32.74560000     -70.84040000
C      -46.13500000     -34.77910000     -70.89790000
H      -46.36430000     -35.71000000     -70.36150000
H      -45.47640000     -34.10950000     -70.39880000
C      -45.56990000     -35.11410000     -72.26850000
C      -45.83930000     -36.33230000     -72.85750000
C      -44.40670000     -34.48550000     -72.87930000
H      -46.63980000     -37.04640000     -72.69210000
C      -43.94370000     -35.23890000     -73.99010000
C      -43.58460000     -33.27050000     -72.78680000
C      -42.51140000     -33.28000000     -73.66520000
S      -44.81640000     -36.68350000     -74.27080000
S      -42.59330000     -34.56800000     -74.92080000
H      -41.76450000     -32.52020000     -73.67870000
