40
Properties=species:S:1:pos:R:3 #=T CELL(abcABC):=T 1.889726e+02=T 90.00000=T Traj:=T positionsangstrom=T Step:=T 0=T Bead:=T pbc="F F F"
C      -44.46460000     -31.76370000     -67.73090000
C      -45.05030000     -31.02100000     -68.75750000
C      -46.37230000     -31.32990000     -69.16810000
C      -46.98960000     -32.45830000     -68.56640000
C      -46.28960000     -33.29170000     -67.67610000
C      -45.01970000     -32.96550000     -67.21660000
H      -43.56920000     -31.34010000     -67.28560000
H      -46.92190000     -30.75400000     -69.94790000
H      -46.89750000     -34.03710000     -67.16530000
H      -44.54270000     -33.58750000     -66.41460000
C      -48.29820000     -32.80140000     -69.13040000
H      -48.42740000     -32.27510000     -70.10120000
H      -49.07430000     -32.57580000     -68.45370000
C      -44.31910000     -29.79020000     -69.35830000
H      -44.67830000     -28.83330000     -68.96610000
H      -43.23640000     -29.87200000     -69.13290000
S      -48.55590000     -34.59200000     -69.45840000
S      -44.39080000     -29.62220000     -71.13660000
C      -47.64510000     -34.83910000     -71.02370000
H      -47.98850000     -35.75490000     -71.53160000
H      -47.88920000     -34.03610000     -71.65880000
C      -44.76980000     -31.18230000     -71.99330000
H      -44.65720000     -31.03620000     -73.09040000
H      -45.76720000     -31.45770000     -71.81140000
C      -43.97700000     -32.40360000     -71.51940000
H      -42.91760000     -32.23200000     -71.19650000
H      -44.38220000     -32.91290000     -70.62580000
C      -46.10640000     -35.04890000     -70.89210000
H      -46.03990000     -35.77020000     -70.06390000
H      -45.62520000     -34.16990000     -70.45440000
C      -45.47670000     -35.45230000     -72.25890000
C      -45.87280000     -36.49810000     -73.02440000
C      -44.47850000     -34.65890000     -72.94390000
H      -46.60900000     -37.17970000     -72.65850000
C      -44.16360000     -35.20840000     -74.22730000
C      -43.84990000     -33.43650000     -72.68210000
C      -42.93400000     -33.11850000     -73.66500000
S      -44.95390000     -36.73110000     -74.52270000
S      -42.93200000     -34.27040000     -75.00710000
H      -42.36570000     -32.22910000     -73.61210000
