40
Properties=species:S:1:pos:R:3 #=T CELL(abcABC):=T 1.889726e+02=T 90.00000=T Traj:=T positionsangstrom=T Step:=T 0=T Bead:=T pbc="F F F"
C      -42.08120000     -33.59940000     -73.36230000
C      -42.50810000     -32.47980000     -72.61580000
C      -43.53770000     -31.66420000     -73.04770000
C      -44.19660000     -32.06940000     -74.24010000
C      -43.77840000     -33.16590000     -74.98720000
C      -42.75360000     -33.95380000     -74.53590000
H      -41.30140000     -34.27410000     -73.08830000
H      -43.86420000     -30.79920000     -72.54580000
H      -44.31990000     -33.33330000     -75.88400000
H      -42.38070000     -34.75710000     -75.15420000
C      -45.36820000     -31.26500000     -74.83720000
H      -45.45850000     -31.50510000     -75.87500000
H      -45.29190000     -30.16340000     -74.74470000
C      -41.58750000     -32.16440000     -71.42700000
H      -40.98700000     -33.03170000     -71.16410000
H      -40.73440000     -31.55310000     -71.85670000
S      -46.91880000     -31.84030000     -73.99920000
S      -42.29880000     -31.19700000     -69.96590000
C      -46.66450000     -33.55750000     -73.67700000
H      -47.68940000     -33.99130000     -73.75270000
H      -46.03770000     -34.09570000     -74.44880000
C      -43.94650000     -32.05670000     -69.59540000
H      -44.73900000     -31.69290000     -70.23180000
H      -44.26080000     -31.77690000     -68.54450000
C      -43.98880000     -33.64760000     -69.74780000
H      -43.77540000     -33.79200000     -70.82690000
H      -43.13500000     -33.99030000     -69.14980000
C      -46.03020000     -33.85100000     -72.25580000
H      -45.64340000     -32.90940000     -71.86370000
H      -45.10250000     -34.41990000     -72.36590000
C      -46.99630000     -34.44200000     -71.22010000
C      -48.29540000     -34.85400000     -71.36690000
C      -46.54410000     -34.44220000     -69.84470000
H      -48.84900000     -34.68870000     -72.33710000
C      -47.50820000     -35.01590000     -69.00040000
C      -45.27470000     -34.15080000     -69.13080000
C      -45.42360000     -34.46000000     -67.81480000
S      -48.99190000     -35.46910000     -69.81960000
S      -46.95020000     -35.21040000     -67.36730000
H      -44.68310000     -34.40810000     -67.07180000
