40
Properties=species:S:1:pos:R:3 #=T CELL(abcABC):=T 1.889726e+02=T 90.00000=T Traj:=T positionsangstrom=T Step:=T 0=T Bead:=T pbc="F F F"
C      -44.44760000     -31.63110000     -67.46070000
C      -44.89990000     -31.04100000     -68.63470000
C      -46.18270000     -31.47820000     -69.14500000
C      -46.95770000     -32.48030000     -68.47910000
C      -46.32760000     -33.15050000     -67.35160000
C      -45.14860000     -32.62940000     -66.82130000
H      -43.63990000     -31.22930000     -66.86860000
H      -46.72360000     -30.92010000     -69.96970000
H      -46.99810000     -33.91190000     -66.88360000
H      -44.82220000     -32.93080000     -65.82870000
C      -48.34090000     -32.78500000     -68.93700000
H      -48.61660000     -32.19940000     -69.75980000
H      -49.15690000     -32.63920000     -68.22000000
C      -44.33610000     -29.78680000     -69.34350000
H      -45.02920000     -28.98310000     -69.15580000
H      -43.39760000     -29.46950000     -68.83090000
S      -48.53700000     -34.55610000     -69.43310000
S      -44.05410000     -29.66580000     -71.16060000
C      -47.68720000     -34.68770000     -71.10250000
H      -48.30970000     -35.23610000     -71.78680000
H      -47.73590000     -33.68320000     -71.54040000
C      -44.76760000     -31.20040000     -72.05250000
H      -44.65290000     -30.88530000     -73.03870000
H      -45.81760000     -31.26430000     -71.74340000
C      -44.01170000     -32.47520000     -71.64560000
H      -43.00280000     -32.25840000     -71.21590000
H      -44.61970000     -32.94440000     -70.87930000
C      -46.18360000     -35.13050000     -71.00770000
H      -46.16700000     -36.06000000     -70.40960000
H      -45.67460000     -34.27370000     -70.51820000
C      -45.58820000     -35.44990000     -72.40170000
C      -45.88110000     -36.58840000     -73.06670000
C      -44.65400000     -34.61360000     -73.13920000
H      -46.62220000     -37.36140000     -72.71640000
C      -44.25430000     -35.25760000     -74.26140000
C      -43.86250000     -33.43950000     -72.80630000
C      -42.94600000     -33.15900000     -73.79230000
S      -45.03530000     -36.79810000     -74.65370000
S      -43.00710000     -34.34700000     -75.05490000
H      -42.17250000     -32.37480000     -73.75390000
