40
Properties=species:S:1:pos:R:3 #=T CELL(abcABC):=T 1.889726e+02=T 90.00000=T Traj:=T positionsangstrom=T Step:=T 0=T Bead:=T pbc="F F F"
C      -44.57330000     -31.69580000     -67.69460000
C      -45.19450000     -30.89120000     -68.62440000
C      -46.45600000     -31.32980000     -69.03130000
C      -47.17190000     -32.33300000     -68.40640000
C      -46.50430000     -33.16240000     -67.42150000
C      -45.16800000     -32.81790000     -67.10280000
H      -43.55490000     -31.49400000     -67.31670000
H      -46.94570000     -30.75980000     -69.78150000
H      -46.97610000     -34.04550000     -67.01040000
H      -44.66150000     -33.38940000     -66.30960000
C      -48.59220000     -32.65300000     -68.92450000
H      -48.85500000     -31.90350000     -69.63050000
H      -49.34670000     -32.65970000     -68.13120000
C      -44.44300000     -29.75740000     -69.28120000
H      -45.12840000     -28.90170000     -69.31490000
H      -43.59100000     -29.42750000     -68.74280000
S      -48.55040000     -34.33870000     -69.61010000
S      -43.75860000     -29.78480000     -71.00020000
C      -47.55430000     -34.43860000     -71.16290000
H      -48.10850000     -34.99060000     -71.96260000
H      -47.29860000     -33.47480000     -71.55360000
C      -44.57650000     -31.19680000     -71.89200000
H      -44.76100000     -30.98850000     -72.97140000
H      -45.53250000     -31.23770000     -71.48720000
C      -43.78100000     -32.50220000     -71.67590000
H      -42.70090000     -32.31830000     -71.45910000
H      -44.08010000     -33.01990000     -70.79980000
C      -46.12490000     -35.02320000     -70.97190000
H      -46.07260000     -35.86040000     -70.24440000
H      -45.51870000     -34.25020000     -70.61040000
C      -45.57160000     -35.46590000     -72.29010000
C      -46.10370000     -36.46560000     -73.05980000
C      -44.45250000     -34.78110000     -72.93230000
H      -46.83670000     -37.14750000     -72.70660000
C      -44.15040000     -35.40090000     -74.18470000
C      -43.75840000     -33.50500000     -72.84440000
C      -42.85430000     -33.28290000     -73.90480000
S      -45.18690000     -36.80340000     -74.57200000
S      -42.96360000     -34.55340000     -75.10750000
H      -42.13160000     -32.50430000     -73.99810000
