40
Properties=species:S:1:pos:R:3 #=T CELL(abcABC):=T 1.889726e+02=T 90.00000=T Traj:=T positionsangstrom=T Step:=T 0=T Bead:=T pbc="F F F"
C      -44.50150000     -31.55360000     -68.23240000
C      -45.34650000     -30.93330000     -69.13810000
C      -46.67580000     -31.22360000     -69.14810000
C      -47.14960000     -32.24090000     -68.35330000
C      -46.32040000     -32.92620000     -67.45310000
C      -44.96990000     -32.55040000     -67.35350000
H      -43.45320000     -31.28680000     -68.35270000
H      -47.34150000     -30.71130000     -69.84340000
H      -46.62490000     -33.78460000     -66.80140000
H      -44.23710000     -32.95350000     -66.64210000
C      -48.57040000     -32.62550000     -68.43190000
H      -49.22210000     -31.71050000     -68.46110000
H      -48.79180000     -33.19080000     -67.56230000
C      -44.85970000     -29.85770000     -70.03650000
H      -45.49560000     -29.66420000     -70.88270000
H      -44.88510000     -28.84870000     -69.50610000
S      -49.07330000     -33.70150000     -69.91350000
S      -43.19090000     -30.08050000     -70.71000000
C      -47.79960000     -33.80210000     -71.24640000
H      -48.40190000     -34.11190000     -72.15220000
H      -47.44600000     -32.74170000     -71.41980000
C      -43.25370000     -31.21670000     -72.11230000
H      -42.20740000     -31.22270000     -72.47400000
H      -43.86630000     -30.88270000     -72.89810000
C      -43.61020000     -32.65800000     -71.68700000
H      -42.83420000     -33.03360000     -70.90410000
H      -44.58780000     -32.65720000     -71.13780000
C      -46.54090000     -34.65830000     -70.98090000
H      -46.74440000     -35.48350000     -70.25870000
H      -45.85920000     -34.08440000     -70.36880000
C      -45.89530000     -35.19370000     -72.25120000
C      -46.40230000     -36.26070000     -72.93880000
C      -44.73280000     -34.65170000     -73.01850000
H      -47.24980000     -36.87160000     -72.74460000
C      -44.33750000     -35.55000000     -74.05640000
C      -43.68710000     -33.69110000     -72.80390000
C      -42.58390000     -33.97110000     -73.61650000
S      -45.43340000     -36.88160000     -74.35160000
S      -42.72280000     -35.29930000     -74.70990000
H      -41.63670000     -33.34510000     -73.54770000
