40
Properties=species:S:1:pos:R:3 #=T CELL(abcABC):=T 1.889726e+02=T 90.00000=T Traj:=T positionsangstrom=T Step:=T 0=T Bead:=T pbc="F F F"
C      -44.57670000     -31.60700000     -68.16910000
C      -45.38480000     -30.79680000     -69.00750000
C      -46.73650000     -31.15660000     -69.12220000
C      -47.18590000     -32.38110000     -68.60600000
C      -46.31100000     -33.22600000     -67.88870000
C      -45.04350000     -32.77940000     -67.53770000
H      -43.57560000     -31.35940000     -68.03220000
H      -47.36750000     -30.47130000     -69.56660000
H      -46.68410000     -34.15410000     -67.53430000
H      -44.53710000     -33.33410000     -66.84570000
C      -48.63940000     -32.62980000     -68.86570000
H      -48.98690000     -31.64440000     -69.34400000
H      -49.23180000     -32.82300000     -67.94160000
C      -44.79040000     -29.65280000     -69.72780000
H      -45.42130000     -29.17040000     -70.48130000
H      -44.52420000     -28.81370000     -69.07460000
S      -48.94420000     -34.11390000     -70.03810000
S      -43.29940000     -30.05990000     -70.66840000
C      -47.53630000     -33.97230000     -71.14420000
H      -47.89380000     -34.37480000     -72.07430000
H      -47.34130000     -32.92120000     -71.32240000
C      -43.96320000     -31.43500000     -71.70970000
H      -43.82540000     -31.13800000     -72.75390000
H      -44.98010000     -31.54300000     -71.63010000
C      -43.20840000     -32.79280000     -71.57860000
H      -42.13430000     -32.62130000     -71.47520000
H      -43.52540000     -33.23170000     -70.64440000
C      -46.18630000     -34.64500000     -70.70540000
H      -46.29820000     -35.35620000     -69.93950000
H      -45.61620000     -33.81620000     -70.16490000
C      -45.49490000     -35.34210000     -71.94400000
C      -46.12620000     -36.28370000     -72.66780000
C      -44.42360000     -34.83770000     -72.79230000
H      -46.96370000     -36.82770000     -72.15730000
C      -44.30710000     -35.47250000     -74.04220000
C      -43.43690000     -33.75260000     -72.69560000
C      -42.66060000     -33.69670000     -73.83490000
S      -45.52020000     -36.60450000     -74.23500000
S      -43.12200000     -34.84800000     -75.08040000
H      -41.77410000     -33.02510000     -74.01770000
