40
Properties=species:S:1:pos:R:3 #=T CELL(abcABC):=T 1.889726e+02=T 90.00000=T Traj:=T positionsangstrom=T Step:=T 0=T Bead:=T pbc="F F F"
C      -45.11370000     -32.95240000     -74.94700000
C      -44.15420000     -32.30820000     -74.12970000
C      -44.56690000     -31.16960000     -73.40250000
C      -45.91180000     -30.77520000     -73.44520000
C      -46.86480000     -31.44590000     -74.21230000
C      -46.42450000     -32.50460000     -75.01960000
H      -44.84380000     -33.85250000     -75.49560000
H      -43.77810000     -30.74080000     -72.79480000
H      -47.90640000     -31.13680000     -74.26700000
H      -47.13770000     -33.00520000     -75.59190000
C      -46.25510000     -29.47390000     -72.65810000
H      -47.31270000     -29.08860000     -72.66340000
H      -45.60360000     -28.61010000     -73.10720000
C      -42.75130000     -32.88780000     -74.04640000
H      -42.67400000     -33.97780000     -74.45410000
H      -42.04120000     -32.27700000     -74.63950000
S      -45.81360000     -29.73440000     -70.85360000
S      -41.93700000     -32.99150000     -72.44150000
C      -46.54340000     -31.33590000     -70.39780000
H      -47.32080000     -31.15130000     -69.63840000
H      -47.11350000     -31.80400000     -71.23620000
C      -42.71620000     -34.28250000     -71.39000000
H      -42.75920000     -33.79500000     -70.41000000
H      -41.96770000     -35.06190000     -71.25910000
C      -44.02000000     -34.82770000     -71.85760000
H      -44.58280000     -34.10700000     -72.38500000
H      -43.84750000     -35.45330000     -72.66440000
C      -45.44490000     -32.23470000     -69.80100000
H      -45.02500000     -31.73900000     -68.86130000
H      -44.48640000     -32.35160000     -70.27550000
C      -46.11620000     -33.55250000     -69.38730000
C      -47.04440000     -33.63830000     -68.37340000
C      -45.72660000     -34.87790000     -69.92730000
H      -47.52160000     -32.71020000     -68.01320000
C      -46.42850000     -35.85390000     -69.14730000
C      -44.74790000     -35.51470000     -70.80900000
C      -44.87820000     -36.89740000     -70.75600000
S      -47.50730000     -35.32040000     -67.91220000
S      -46.06340000     -37.49530000     -69.62080000
H      -44.51520000     -37.58410000     -71.53240000
