40
Properties=species:S:1:pos:R:3 #=T CELL(abcABC):=T 1.889726e+02=T 90.00000=T Traj:=T positionsangstrom=T Step:=T 0=T Bead:=T pbc="F F F"
C      -44.13850000     -30.71510000     -68.48540000
C      -45.17090000     -30.34130000     -69.40210000
C      -46.44160000     -31.03280000     -69.39580000
C      -46.67620000     -32.05680000     -68.51740000
C      -45.60260000     -32.41450000     -67.61910000
C      -44.45200000     -31.64780000     -67.47930000
H      -43.21570000     -30.15150000     -68.39860000
H      -47.20020000     -30.72360000     -70.16130000
H      -45.81820000     -33.16180000     -66.85440000
H      -43.69950000     -32.02910000     -66.79590000
C      -47.93270000     -32.86050000     -68.62900000
H      -48.63890000     -32.23890000     -67.93770000
H      -47.77740000     -33.84770000     -68.11730000
C      -44.91300000     -29.36390000     -70.45170000
H      -45.79450000     -29.13290000     -71.01000000
H      -44.61960000     -28.35930000     -70.02930000
S      -48.73700000     -33.01080000     -70.25770000
S      -43.58630000     -30.03420000     -71.48660000
C      -47.52650000     -33.81740000     -71.41820000
H      -48.13650000     -34.13870000     -72.26590000
H      -46.76150000     -33.10810000     -71.67090000
C      -44.26810000     -31.53660000     -72.12920000
H      -44.14780000     -31.61320000     -73.14340000
H      -45.32150000     -31.33600000     -72.04060000
C      -44.04530000     -32.88180000     -71.41820000
H      -43.18380000     -32.93330000     -70.65580000
H      -44.95280000     -33.16650000     -70.81610000
C      -46.69380000     -34.94900000     -70.75880000
H      -47.33290000     -35.62540000     -70.28130000
H      -46.00510000     -34.53020000     -70.01430000
C      -45.97590000     -35.61500000     -71.86970000
C      -46.40400000     -36.82440000     -72.34870000
C      -44.72690000     -35.14000000     -72.55850000
H      -47.27630000     -37.22850000     -71.87220000
C      -44.46020000     -35.97040000     -73.61900000
C      -43.85940000     -33.96640000     -72.50440000
C      -42.85760000     -34.18780000     -73.45550000
S      -45.42200000     -37.45850000     -73.67970000
S      -43.05140000     -35.54420000     -74.56890000
H      -42.04170000     -33.45940000     -73.61570000
