40
Properties=species:S:1:pos:R:3 #=T CELL(abcABC):=T 1.889726e+02=T 90.00000=T Traj:=T positionsangstrom=T Step:=T 0=T Bead:=T pbc="F F F"
C      -44.31530000     -32.71020000     -74.79640000
C      -43.65350000     -32.04680000     -73.72480000
C      -44.42190000     -31.15890000     -72.96190000
C      -45.79630000     -30.87260000     -73.27250000
C      -46.39280000     -31.49900000     -74.40410000
C      -45.63770000     -32.42400000     -75.11010000
H      -43.72510000     -33.33060000     -75.49300000
H      -44.03770000     -30.80520000     -72.00480000
H      -47.44570000     -31.40390000     -74.61020000
H      -46.06500000     -32.86430000     -75.99570000
C      -46.60470000     -29.78860000     -72.51340000
H      -47.59260000     -29.88100000     -72.95160000
H      -46.18300000     -28.86180000     -72.67790000
C      -42.27360000     -32.35190000     -73.37970000
H      -42.11200000     -33.39770000     -73.74110000
H      -41.55670000     -31.61390000     -73.77700000
S      -46.47550000     -29.74240000     -70.67850000
S      -42.01390000     -32.39560000     -71.57240000
C      -47.20040000     -31.33210000     -70.01990000
H      -47.24550000     -31.27150000     -68.96190000
H      -48.29530000     -31.37640000     -70.27220000
C      -42.44820000     -34.18700000     -71.35610000
H      -42.28410000     -34.38560000     -70.28550000
H      -41.77710000     -34.84060000     -71.94750000
C      -43.89300000     -34.42920000     -71.78540000
H      -44.39670000     -33.44700000     -71.83320000
H      -43.84800000     -34.95640000     -72.80540000
C      -46.38760000     -32.53970000     -70.57910000
H      -45.29490000     -32.31400000     -70.59110000
H      -46.58550000     -32.69290000     -71.62740000
C      -46.70800000     -33.81760000     -69.87200000
C      -47.70990000     -34.15100000     -69.03070000
C      -45.89210000     -35.00710000     -70.19260000
H      -48.39220000     -33.42910000     -68.56670000
C      -46.36350000     -36.14820000     -69.53060000
C      -44.62210000     -35.28110000     -70.87300000
C      -44.22130000     -36.58790000     -70.60350000
S      -47.88510000     -35.86720000     -68.69890000
S      -45.39210000     -37.62940000     -69.76770000
H      -43.33850000     -37.00210000     -71.11550000
