40
Properties=species:S:1:pos:R:3 #=T CELL(abcABC):=T 1.889726e+02=T 90.00000=T Traj:=T positionsangstrom=T Step:=T 0=T Bead:=T pbc="F F F"
C      -44.36750000     -32.59810000     -74.71390000
C      -43.69990000     -31.91160000     -73.68250000
C      -44.49820000     -30.96320000     -72.95200000
C      -45.84080000     -30.71410000     -73.29480000
C      -46.47010000     -31.48840000     -74.29310000
C      -45.68320000     -32.41050000     -75.02240000
H      -43.78910000     -33.40990000     -75.15700000
H      -43.98730000     -30.43610000     -72.15020000
H      -47.43820000     -31.23360000     -74.69250000
H      -46.18970000     -33.09150000     -75.67000000
C      -46.61800000     -29.63200000     -72.50360000
H      -47.71700000     -29.40470000     -72.74180000
H      -46.11860000     -28.66100000     -72.57910000
C      -42.24540000     -32.11320000     -73.44140000
H      -41.89830000     -32.89650000     -74.08060000
H      -41.70210000     -31.25970000     -73.82000000
S      -46.46970000     -29.81190000     -70.60590000
S      -41.70820000     -32.33530000     -71.65630000
C      -47.25840000     -31.38790000     -70.24130000
H      -47.47490000     -31.33860000     -69.14760000
H      -48.21000000     -31.50350000     -70.81130000
C      -42.43300000     -33.94980000     -71.03960000
H      -42.59410000     -33.66450000     -69.98040000
H      -41.70940000     -34.71730000     -71.21770000
C      -43.80830000     -34.35630000     -71.67450000
H      -44.41030000     -33.48720000     -71.58220000
H      -43.70160000     -34.57820000     -72.69610000
C      -46.32820000     -32.60660000     -70.58610000
H      -45.31810000     -32.46050000     -70.20740000
H      -46.10610000     -32.60730000     -71.71630000
C      -46.74810000     -33.96310000     -70.00340000
C      -47.89310000     -34.28290000     -69.31830000
C      -45.88790000     -35.15290000     -70.16440000
H      -48.71060000     -33.63390000     -69.03190000
C      -46.34210000     -36.24220000     -69.51040000
C      -44.64170000     -35.40390000     -70.87540000
C      -44.29570000     -36.78960000     -70.79680000
S      -47.87200000     -35.93400000     -68.70590000
S      -45.51420000     -37.75920000     -69.73630000
H      -43.37540000     -37.30980000     -71.10130000
