40
Properties=species:S:1:pos:R:3 #=T CELL(abcABC):=T 1.889726e+02=T 90.00000=T Traj:=T positionsangstrom=T Step:=T 0=T Bead:=T pbc="F F F"
C      -44.00670000     -36.95700000     -71.59430000
C      -44.88220000     -36.75800000     -70.45960000
C      -44.42410000     -35.95400000     -69.36620000
C      -43.14940000     -35.30400000     -69.48150000
C      -42.36680000     -35.48480000     -70.66440000
C      -42.78700000     -36.36950000     -71.68300000
H      -44.25890000     -37.75870000     -72.32340000
H      -45.10760000     -35.74180000     -68.54550000
H      -41.41030000     -35.03400000     -70.80410000
H      -42.08950000     -36.54450000     -72.49210000
C      -42.52470000     -34.41020000     -68.41240000
H      -41.59400000     -34.03320000     -68.78350000
H      -42.39220000     -35.10910000     -67.51210000
C      -46.25380000     -37.43620000     -70.30870000
H      -46.27470000     -38.22470000     -71.08540000
H      -46.41470000     -37.85150000     -69.35040000
S      -43.52040000     -33.02440000     -67.86770000
S      -47.69290000     -36.16990000     -70.72810000
C      -43.64610000     -31.93240000     -69.35770000
H      -43.64690000     -30.95150000     -68.95080000
H      -42.76780000     -31.99910000     -70.06670000
C      -46.88650000     -34.82770000     -71.69430000
H      -46.69760000     -35.26450000     -72.75350000
H      -45.94850000     -34.52740000     -71.25320000
C      -47.75460000     -33.57180000     -71.60230000
H      -48.77740000     -33.78890000     -71.86340000
H      -47.67330000     -33.21030000     -70.54350000
C      -44.95260000     -32.07820000     -70.14850000
H      -45.75820000     -31.84120000     -69.46600000
H      -45.04040000     -33.08050000     -70.42650000
C      -45.15220000     -31.24080000     -71.43410000
C      -44.39850000     -30.14680000     -71.77360000
C      -46.17410000     -31.58410000     -72.40180000
H      -43.54980000     -29.72540000     -71.20580000
C      -46.05470000     -30.77480000     -73.54590000
C      -47.17730000     -32.55460000     -72.64790000
C      -47.87040000     -32.32470000     -73.79530000
S      -44.88830000     -29.48270000     -73.31310000
S      -47.25560000     -31.01600000     -74.78600000
H      -48.79420000     -32.81390000     -74.13320000
