40
Properties=species:S:1:pos:R:3 #=T CELL(abcABC):=T 1.889726e+02=T 90.00000=T Traj:=T positionsangstrom=T Step:=T 0=T Bead:=T pbc="F F F"
C      -44.25710000     -30.66610000     -68.81660000
C      -45.43690000     -30.44400000     -69.62180000
C      -46.58590000     -31.17670000     -69.37580000
C      -46.56140000     -32.15750000     -68.38130000
C      -45.44360000     -32.37360000     -67.61880000
C      -44.20610000     -31.63580000     -67.76800000
H      -43.39010000     -30.03140000     -69.05390000
H      -47.48180000     -30.93280000     -69.94680000
H      -45.50460000     -33.04550000     -66.78140000
H      -43.43550000     -31.82600000     -67.11320000
C      -47.90550000     -32.85510000     -68.13400000
H      -48.53730000     -32.21910000     -67.49910000
H      -47.63150000     -33.79070000     -67.57790000
C      -45.34040000     -29.46690000     -70.86470000
H      -46.28710000     -29.47080000     -71.41240000
H      -45.06720000     -28.44770000     -70.68770000
S      -48.81960000     -33.31470000     -69.63870000
S      -43.87300000     -29.99160000     -71.96030000
C      -47.72040000     -33.66660000     -70.99480000
H      -48.39900000     -33.99370000     -71.87240000
H      -47.32200000     -32.79860000     -71.44400000
C      -44.13540000     -31.75150000     -72.39920000
H      -43.52640000     -31.74190000     -73.29690000
H      -45.24980000     -31.95270000     -72.55300000
C      -43.55530000     -32.87140000     -71.47200000
H      -42.53960000     -32.69460000     -71.17310000
H      -44.17960000     -32.90030000     -70.64090000
C      -46.64890000     -34.73270000     -70.74480000
H      -47.07840000     -35.59440000     -70.20370000
H      -45.87180000     -34.45670000     -70.01830000
C      -46.06240000     -35.27340000     -72.05550000
C      -46.63400000     -36.32780000     -72.67040000
C      -44.61050000     -35.13540000     -72.48260000
H      -47.62800000     -36.75050000     -72.42380000
C      -44.34100000     -35.96730000     -73.57910000
C      -43.55570000     -34.13370000     -72.28050000
C      -42.48250000     -34.48180000     -73.04730000
S      -45.62900000     -37.04730000     -73.92260000
S      -42.76180000     -35.77810000     -74.34370000
H      -41.56300000     -33.89400000     -73.09420000
