40
Properties=species:S:1:pos:R:3 #=T CELL(abcABC):=T 1.889726e+02=T 90.00000=T Traj:=T positionsangstrom=T Step:=T 0=T Bead:=T pbc="F F F"
C      -44.26690000     -30.62590000     -68.71920000
C      -45.30220000     -30.41040000     -69.59100000
C      -46.54990000     -31.14360000     -69.36400000
C      -46.64690000     -32.05700000     -68.33620000
C      -45.54630000     -32.31650000     -67.50260000
C      -44.35680000     -31.60590000     -67.68960000
H      -43.36120000     -30.04530000     -68.85570000
H      -47.41250000     -31.00900000     -70.01480000
H      -45.62500000     -33.08620000     -66.74380000
H      -43.46310000     -31.78710000     -67.15520000
C      -47.77030000     -32.99320000     -68.15320000
H      -48.47890000     -32.57800000     -67.40340000
H      -47.45780000     -33.91230000     -67.72130000
C      -45.17680000     -29.50770000     -70.73970000
H      -46.10880000     -29.46130000     -71.33830000
H      -44.89420000     -28.45910000     -70.41110000
S      -48.84390000     -33.36070000     -69.68380000
S      -43.75100000     -29.99340000     -71.95440000
C      -47.61430000     -33.62040000     -70.99690000
H      -48.28400000     -33.94690000     -71.87580000
H      -47.13650000     -32.66290000     -71.16950000
C      -44.16770000     -31.66710000     -72.57360000
H      -43.68290000     -31.76650000     -73.56600000
H      -45.26220000     -31.81420000     -72.76930000
C      -43.73280000     -32.80020000     -71.62320000
H      -42.79660000     -32.57180000     -71.04090000
H      -44.48000000     -32.81150000     -70.81340000
C      -46.56090000     -34.69700000     -70.72240000
H      -47.05090000     -35.43250000     -70.04900000
H      -45.72850000     -34.13670000     -70.27960000
C      -46.04100000     -35.38560000     -71.99750000
C      -46.56780000     -36.52800000     -72.54470000
C      -44.78950000     -35.01200000     -72.59390000
H      -47.48370000     -37.13230000     -72.26790000
C      -44.38250000     -35.95300000     -73.58170000
C      -43.74520000     -34.06820000     -72.38170000
C      -42.70140000     -34.34960000     -73.23730000
S      -45.58590000     -37.11230000     -73.94670000
S      -42.74850000     -35.80690000     -74.26680000
H      -41.69340000     -33.90440000     -73.25790000
