40
Properties=species:S:1:pos:R:3 #=T CELL(abcABC):=T 1.889726e+02=T 90.00000=T Traj:=T positionsangstrom=T Step:=T 0=T Bead:=T pbc="F F F"
C      -44.02570000     -31.07640000     -68.39440000
C      -45.09600000     -30.56220000     -69.17430000
C      -46.30200000     -31.33740000     -69.25160000
C      -46.39570000     -32.49580000     -68.51410000
C      -45.29010000     -33.04410000     -67.80130000
C      -44.16160000     -32.27530000     -67.64730000
H      -43.05650000     -30.50990000     -68.30000000
H      -47.09390000     -30.91500000     -69.88430000
H      -45.59340000     -33.97670000     -67.41200000
H      -43.24530000     -32.63390000     -67.13360000
C      -47.64650000     -33.28840000     -68.42750000
H      -48.24740000     -33.10560000     -67.52820000
H      -47.44280000     -34.35730000     -68.35250000
C      -44.85430000     -29.37060000     -70.07060000
H      -45.70950000     -28.71050000     -70.13910000
H      -43.99480000     -28.87230000     -69.74080000
S      -48.81180000     -33.19410000     -69.82540000
S      -44.29950000     -29.77670000     -71.81600000
C      -47.97380000     -33.85420000     -71.29550000
H      -48.71250000     -34.46310000     -71.78600000
H      -47.69170000     -32.99420000     -71.99250000
C      -44.85130000     -31.49020000     -72.25300000
H      -44.68700000     -31.46450000     -73.34420000
H      -45.94180000     -31.62810000     -72.10400000
C      -43.84940000     -32.62560000     -71.63340000
H      -42.83990000     -32.19860000     -71.63840000
H      -44.22260000     -32.86210000     -70.65690000
C      -46.73510000     -34.66610000     -70.94180000
H      -47.12510000     -35.48550000     -70.28470000
H      -46.08560000     -34.02190000     -70.35410000
C      -46.01150000     -35.28650000     -72.14520000
C      -46.49810000     -36.46290000     -72.69200000
C      -44.77380000     -34.86730000     -72.76040000
H      -47.45620000     -36.95260000     -72.36140000
C      -44.30070000     -35.82470000     -73.63190000
C      -43.79030000     -33.80830000     -72.55990000
C      -42.68260000     -33.98180000     -73.34900000
S      -45.41070000     -37.17410000     -73.87950000
S      -42.64430000     -35.47760000     -74.26920000
H      -41.82560000     -33.28690000     -73.36240000
