40
Properties=species:S:1:pos:R:3 #=T CELL(abcABC):=T 1.889726e+02=T 90.00000=T Traj:=T positionsangstrom=T Step:=T 0=T Bead:=T pbc="F F F"
C      -46.49220000     -30.85100000     -73.99820000
C      -45.55260000     -31.83140000     -74.31130000
C      -44.25330000     -31.71590000     -73.73280000
C      -43.91960000     -30.67110000     -72.87380000
C      -44.90900000     -29.77440000     -72.49690000
C      -46.15040000     -29.85490000     -73.12070000
H      -47.39850000     -31.03570000     -74.54700000
H      -43.50700000     -32.44520000     -74.00200000
H      -44.57870000     -29.01390000     -71.75190000
H      -46.94680000     -29.20880000     -72.79360000
C      -42.56090000     -30.60840000     -72.33340000
H      -42.16670000     -29.62910000     -72.37640000
H      -41.92310000     -31.34920000     -72.78160000
C      -45.85330000     -32.86340000     -75.33640000
H      -46.17210000     -32.43790000     -76.34020000
H      -45.00730000     -33.47520000     -75.47980000
S      -42.40460000     -30.96180000     -70.44900000
S      -47.25530000     -33.95270000     -74.67660000
C      -43.16080000     -32.65210000     -70.17060000
H      -42.71950000     -33.43390000     -70.81570000
H      -42.96750000     -32.92410000     -69.12650000
C      -46.99990000     -34.25860000     -72.89260000
H      -47.99290000     -34.77150000     -72.64720000
H      -47.10720000     -33.27850000     -72.30920000
C      -45.77510000     -35.04900000     -72.50820000
H      -45.80030000     -35.94200000     -73.26080000
H      -44.88380000     -34.50620000     -72.76380000
C      -44.67310000     -32.56520000     -70.32420000
H      -45.00160000     -32.74400000     -71.39740000
H      -45.09510000     -31.55230000     -70.10380000
C      -45.29370000     -33.55350000     -69.39700000
C      -45.08050000     -33.42690000     -68.03730000
C      -45.62400000     -34.89910000     -69.79550000
H      -45.01040000     -32.44670000     -67.57430000
C      -45.98580000     -35.67250000     -68.67370000
C      -45.78420000     -35.55050000     -71.05970000
C      -46.19620000     -36.83500000     -70.80000000
S      -45.71040000     -34.82290000     -67.20450000
S      -46.48140000     -37.29020000     -69.11350000
H      -46.49160000     -37.45240000     -71.62520000
