40
Properties=species:S:1:pos:R:3 #=T CELL(abcABC):=T 1.889726e+02=T 90.00000=T Traj:=T positionsangstrom=T Step:=T 0=T Bead:=T pbc="F F F"
C      -46.57860000     -30.69420000     -73.75880000
C      -45.69840000     -31.74320000     -74.12700000
C      -44.35610000     -31.61480000     -73.63890000
C      -43.89560000     -30.53710000     -72.86760000
C      -44.85020000     -29.56110000     -72.43940000
C      -46.17520000     -29.65940000     -72.82720000
H      -47.48150000     -30.75250000     -74.22070000
H      -43.62150000     -32.38490000     -73.91900000
H      -44.39580000     -28.73620000     -71.75430000
H      -46.88700000     -28.86790000     -72.57620000
C      -42.47790000     -30.48840000     -72.34720000
H      -41.97380000     -29.51360000     -72.63480000
H      -41.79880000     -31.23640000     -72.82720000
C      -45.92540000     -32.95340000     -75.14200000
H      -46.12610000     -32.59680000     -76.19600000
H      -44.98650000     -33.53620000     -75.07020000
S      -42.31820000     -30.66550000     -70.47380000
S      -47.32370000     -34.02580000     -74.69750000
C      -43.17420000     -32.34650000     -70.22440000
H      -42.80590000     -33.00530000     -71.00780000
H      -42.76580000     -32.60800000     -69.23070000
C      -47.08800000     -34.12670000     -72.78660000
H      -47.79840000     -34.77030000     -72.35950000
H      -47.04870000     -33.16680000     -72.49280000
C      -45.82530000     -34.93290000     -72.48180000
H      -45.58410000     -35.60290000     -73.28980000
H      -44.88430000     -34.31170000     -72.57400000
C      -44.74850000     -32.46850000     -70.23420000
H      -45.08620000     -32.49600000     -71.23160000
H      -45.09380000     -31.51930000     -69.79180000
C      -45.27090000     -33.66590000     -69.40470000
C      -45.46590000     -33.55150000     -68.05290000
C      -45.59290000     -35.02640000     -69.88400000
H      -45.25110000     -32.67520000     -67.42520000
C      -45.86410000     -35.91900000     -68.83110000
C      -45.78190000     -35.66000000     -71.13200000
C      -46.21570000     -36.97400000     -70.99040000
S      -45.76580000     -35.08960000     -67.28580000
S      -46.19660000     -37.58300000     -69.28570000
H      -46.46940000     -37.62900000     -71.82680000
