40
Properties=species:S:1:pos:R:3 #=T CELL(abcABC):=T 1.889726e+02=T 90.00000=T Traj:=T positionsangstrom=T Step:=T 0=T Bead:=T pbc="F F F"
C      -44.48340000     -30.68210000     -68.35000000
C      -45.40280000     -30.57060000     -69.40580000
C      -46.55130000     -31.31920000     -69.30650000
C      -46.83640000     -32.28210000     -68.28750000
C      -45.92080000     -32.25700000     -67.22370000
C      -44.80910000     -31.45640000     -67.24710000
H      -43.56080000     -30.09800000     -68.31850000
H      -47.28360000     -31.21350000     -70.11150000
H      -45.99820000     -32.81780000     -66.27120000
H      -44.15020000     -31.47450000     -66.39340000
C      -48.07700000     -33.17450000     -68.32220000
H      -48.87440000     -32.73000000     -67.71860000
H      -47.77110000     -34.04330000     -67.76100000
C      -45.13910000     -29.70400000     -70.62090000
H      -45.77630000     -29.84800000     -71.52090000
H      -45.11270000     -28.65680000     -70.33910000
S      -48.75610000     -33.51270000     -69.97820000
S      -43.41130000     -29.84030000     -71.17460000
C      -47.40230000     -33.96290000     -71.08620000
H      -47.85400000     -34.35460000     -71.96400000
H      -46.92060000     -33.07090000     -71.55100000
C      -43.30960000     -31.33520000     -72.41390000
H      -42.23240000     -31.49900000     -72.54330000
H      -43.52320000     -30.93790000     -73.38190000
C      -44.04550000     -32.58680000     -71.95890000
H      -43.50890000     -32.81450000     -71.04190000
H      -45.06170000     -32.41300000     -71.66090000
C      -46.37030000     -35.00530000     -70.65010000
H      -46.73530000     -35.77770000     -69.95740000
H      -45.55700000     -34.46540000     -70.18370000
C      -45.74780000     -35.61270000     -71.85010000
C      -46.09200000     -36.92950000     -72.22440000
C      -44.73160000     -34.99770000     -72.76330000
H      -46.67970000     -37.67500000     -71.65020000
C      -44.45520000     -35.88420000     -73.76670000
C      -43.99460000     -33.77200000     -72.94220000
C      -43.14630000     -33.78210000     -74.03930000
S      -45.27650000     -37.39810000     -73.69880000
S      -43.30110000     -35.29600000     -74.95820000
H      -42.56090000     -32.99870000     -74.38640000
