40
Properties=species:S:1:pos:R:3 #=T CELL(abcABC):=T 1.889726e+02=T 90.00000=T Traj:=T positionsangstrom=T Step:=T 0=T Bead:=T pbc="F F F"
C      -44.02410000     -36.78980000     -71.57760000
C      -44.79640000     -36.64580000     -70.42770000
C      -44.44660000     -35.75230000     -69.40470000
C      -43.06290000     -35.30560000     -69.38100000
C      -42.22720000     -35.60500000     -70.47290000
C      -42.73200000     -36.31730000     -71.55510000
H      -44.35150000     -37.17420000     -72.53530000
H      -45.04040000     -35.59570000     -68.55180000
H      -41.22970000     -35.27300000     -70.48940000
H      -42.16470000     -36.41070000     -72.44590000
C      -42.59190000     -34.56250000     -68.15070000
H      -41.49410000     -34.38980000     -68.24650000
H      -42.80700000     -35.08570000     -67.21500000
C      -46.20350000     -37.27700000     -70.36870000
H      -46.31870000     -38.10000000     -71.11070000
H      -46.37690000     -37.74860000     -69.35670000
S      -43.54150000     -32.92990000     -67.97610000
S      -47.61090000     -36.08590000     -70.57010000
C      -43.58270000     -32.26290000     -69.75900000
H      -42.97150000     -31.39750000     -69.75200000
H      -43.05370000     -33.03090000     -70.32370000
C      -47.06620000     -34.90920000     -71.89220000
H      -47.53110000     -35.33710000     -72.78330000
H      -45.96210000     -34.99750000     -72.01300000
C      -47.67980000     -33.50950000     -71.63540000
H      -48.73450000     -33.59240000     -71.69750000
H      -47.41890000     -33.26300000     -70.57690000
C      -45.03930000     -32.16280000     -70.17000000
H      -45.73690000     -31.58850000     -69.42300000
H      -45.46440000     -33.15720000     -70.15140000
C      -45.23040000     -31.36960000     -71.46650000
C      -44.48630000     -30.23610000     -71.70120000
C      -46.18430000     -31.64090000     -72.50070000
H      -43.58120000     -29.94020000     -71.15210000
C      -46.07610000     -30.72330000     -73.56180000
C      -47.26150000     -32.55110000     -72.69490000
C      -47.96980000     -32.32520000     -73.85080000
S      -44.89570000     -29.44940000     -73.20580000
S      -47.20720000     -31.09470000     -74.85520000
H      -48.82430000     -32.83960000     -74.15090000
