40
Properties=species:S:1:pos:R:3 #=T CELL(abcABC):=T 1.889726e+02=T 90.00000=T Traj:=T positionsangstrom=T Step:=T 0=T Bead:=T pbc="F F F"
C      -46.61060000     -30.83080000     -73.59480000
C      -45.64250000     -31.76170000     -74.06110000
C      -44.32930000     -31.60160000     -73.57370000
C      -43.92990000     -30.41390000     -72.91180000
C      -44.86190000     -29.44140000     -72.50300000
C      -46.20980000     -29.73780000     -72.78950000
H      -47.63140000     -31.03110000     -73.74850000
H      -43.55160000     -32.37450000     -73.83980000
H      -44.61690000     -28.65580000     -71.73530000
H      -47.02930000     -29.11530000     -72.32990000
C      -42.58480000     -30.32590000     -72.32150000
H      -42.25980000     -29.28910000     -72.45100000
H      -41.84480000     -30.94260000     -72.84740000
C      -45.99220000     -32.76350000     -75.07260000
H      -46.39650000     -32.31610000     -75.92570000
H      -45.16830000     -33.38140000     -75.47550000
S      -42.64290000     -30.70070000     -70.45870000
S      -47.43940000     -33.81370000     -74.52130000
C      -43.29950000     -32.37490000     -70.33140000
H      -43.04330000     -32.95820000     -71.21280000
H      -42.74360000     -32.99520000     -69.62500000
C      -47.11990000     -34.37700000     -72.76320000
H      -47.92110000     -35.04630000     -72.31280000
H      -47.36920000     -33.46760000     -72.10590000
C      -45.68790000     -34.96880000     -72.63200000
H      -45.62030000     -35.72710000     -73.42630000
H      -44.84020000     -34.23730000     -72.79270000
C      -44.84260000     -32.42720000     -70.08980000
H      -45.36180000     -32.36190000     -71.03670000
H      -45.38190000     -31.64300000     -69.50180000
C      -45.17410000     -33.69610000     -69.33600000
C      -45.28030000     -33.68470000     -67.95930000
C      -45.49060000     -34.98940000     -69.94330000
H      -44.89780000     -32.86670000     -67.29640000
C      -45.75210000     -35.95140000     -68.94130000
C      -45.54310000     -35.62740000     -71.26960000
C      -45.95520000     -36.95170000     -71.13520000
S      -45.71370000     -35.26810000     -67.30160000
S      -46.01110000     -37.55830000     -69.46650000
H      -46.01730000     -37.70880000     -71.89370000
