40
Properties=species:S:1:pos:R:3 #=T CELL(abcABC):=T 1.889726e+02=T 90.00000=T Traj:=T positionsangstrom=T Step:=T 0=T Bead:=T pbc="F F F"
C      -44.02500000     -31.43850000     -68.76500000
C      -45.16130000     -30.72030000     -69.25390000
C      -46.44420000     -31.22820000     -68.99280000
C      -46.58460000     -32.49950000     -68.31650000
C      -45.49800000     -33.16640000     -67.86290000
C      -44.19940000     -32.62930000     -68.02160000
H      -43.00770000     -31.00720000     -68.79630000
H      -47.31730000     -30.67050000     -69.29590000
H      -45.54130000     -34.09330000     -67.19410000
H      -43.38940000     -33.11310000     -67.55140000
C      -47.94880000     -33.15910000     -68.31080000
H      -48.65960000     -32.68750000     -67.62550000
H      -47.79970000     -34.22020000     -67.95740000
C      -45.01590000     -29.44220000     -70.07440000
H      -45.96740000     -29.03050000     -70.30420000
H      -44.44150000     -28.66310000     -69.50540000
S      -48.83270000     -33.09910000     -69.98430000
S      -44.04360000     -29.70620000     -71.63070000
C      -47.65220000     -33.60860000     -71.29580000
H      -48.21430000     -34.18870000     -72.13350000
H      -47.17550000     -32.77750000     -71.65940000
C      -44.51940000     -31.42560000     -72.16920000
H      -44.26730000     -31.44330000     -73.26380000
H      -45.59960000     -31.53230000     -72.10870000
C      -43.78860000     -32.60210000     -71.67720000
H      -42.74030000     -32.32350000     -71.50100000
H      -44.15760000     -32.95000000     -70.66110000
C      -46.53240000     -34.61130000     -70.77620000
H      -47.06470000     -35.37410000     -70.17040000
H      -45.80720000     -34.09090000     -70.11480000
C      -45.86830000     -35.36510000     -71.88730000
C      -46.33430000     -36.56540000     -72.34990000
C      -44.64290000     -34.93280000     -72.57560000
H      -47.13010000     -37.21440000     -71.96020000
C      -44.27590000     -35.87100000     -73.57690000
C      -43.76060000     -33.72880000     -72.67210000
C      -42.84730000     -33.84360000     -73.68870000
S      -45.37240000     -37.23960000     -73.68340000
S      -42.99100000     -35.37930000     -74.61350000
H      -42.01360000     -33.16810000     -73.98930000
