40
Properties=species:S:1:pos:R:3 #=T CELL(abcABC):=T 1.889726e+02=T 90.00000=T Traj:=T positionsangstrom=T Step:=T 0=T Bead:=T pbc="F F F"
C      -46.40850000     -30.91270000     -74.12100000
C      -45.47290000     -31.90430000     -74.42140000
C      -44.22880000     -31.79730000     -73.81020000
C      -43.92320000     -30.78590000     -72.87930000
C      -44.93200000     -29.86780000     -72.55130000
C      -46.17580000     -29.83880000     -73.22810000
H      -47.41110000     -31.05520000     -74.62090000
H      -43.51350000     -32.58660000     -74.08740000
H      -44.66530000     -29.18130000     -71.77650000
H      -46.90460000     -29.08270000     -73.05590000
C      -42.43930000     -30.67270000     -72.41450000
H      -42.01750000     -29.68780000     -72.66770000
H      -41.75720000     -31.32460000     -72.96990000
C      -45.77690000     -33.08750000     -75.29250000
H      -46.19160000     -32.69040000     -76.21420000
H      -44.99810000     -33.78550000     -75.64150000
S      -42.30000000     -30.96220000     -70.59290000
S      -47.19230000     -34.14090000     -74.62470000
C      -43.16170000     -32.62180000     -70.63660000
H      -42.96360000     -33.10790000     -71.58800000
H      -42.73780000     -33.33020000     -69.92290000
C      -46.86340000     -34.25800000     -72.81900000
H      -47.79120000     -34.61350000     -72.38250000
H      -46.79620000     -33.23540000     -72.37720000
C      -45.67750000     -35.17470000     -72.40570000
H      -45.60680000     -36.11740000     -72.97070000
H      -44.81530000     -34.57520000     -72.44760000
C      -44.69620000     -32.40480000     -70.35380000
H      -45.16840000     -32.44920000     -71.34280000
H      -44.87440000     -31.45440000     -69.91320000
C      -45.30170000     -33.48380000     -69.41470000
C      -45.23160000     -33.28430000     -68.08420000
C      -45.72060000     -34.85530000     -69.72410000
H      -45.04040000     -32.39580000     -67.59770000
C      -46.07580000     -35.51910000     -68.58650000
C      -45.97120000     -35.58270000     -70.93550000
C      -46.40060000     -36.81920000     -70.60020000
S      -45.69360000     -34.65930000     -67.15050000
S      -46.62210000     -37.15940000     -68.87900000
H      -46.60420000     -37.50940000     -71.40850000
