40
Properties=species:S:1:pos:R:3 #=T CELL(abcABC):=T 1.889726e+02=T 90.00000=T Traj:=T positionsangstrom=T Step:=T 0=T Bead:=T pbc="F F F"
C      -47.79970000     -30.69350000     -72.79840000
C      -46.80460000     -31.17630000     -73.69890000
C      -45.42600000     -31.05410000     -73.39480000
C      -44.99650000     -30.37730000     -72.25280000
C      -45.99670000     -29.67920000     -71.48940000
C      -47.39050000     -29.86570000     -71.74850000
H      -48.88230000     -30.94960000     -72.93190000
H      -44.67300000     -31.58430000     -74.00040000
H      -45.75520000     -29.07840000     -70.62400000
H      -48.18330000     -29.30180000     -71.22960000
C      -43.52860000     -30.14500000     -71.96930000
H      -43.27780000     -29.16720000     -72.29440000
H      -42.93540000     -30.91100000     -72.49780000
C      -47.07920000     -32.03140000     -74.92610000
H      -47.84250000     -31.67630000     -75.59890000
H      -46.20710000     -32.19100000     -75.56930000
S      -43.05370000     -30.35310000     -70.24930000
S      -47.49400000     -33.81280000     -74.55380000
C      -43.35820000     -32.15690000     -69.86770000
H      -42.90990000     -32.86060000     -70.70330000
H      -42.79220000     -32.31790000     -68.92420000
C      -46.81380000     -34.14940000     -72.88120000
H      -47.28370000     -35.05540000     -72.66150000
H      -47.20180000     -33.49890000     -72.20610000
C      -45.22550000     -34.26480000     -72.66260000
H      -44.76270000     -34.57380000     -73.55610000
H      -44.70770000     -33.27280000     -72.37150000
C      -44.86730000     -32.60400000     -69.72290000
H      -45.31790000     -32.28590000     -70.72230000
H      -45.32200000     -32.10960000     -68.93420000
C      -44.99530000     -34.04450000     -69.33550000
C      -45.02560000     -34.40190000     -68.00000000
C      -44.90190000     -35.22040000     -70.19230000
H      -45.18650000     -33.87000000     -67.08710000
C      -44.74790000     -36.41310000     -69.47000000
C      -44.86220000     -35.37660000     -71.60900000
C      -44.81830000     -36.71110000     -71.98780000
S      -44.73870000     -36.10810000     -67.75450000
S      -44.69780000     -37.78510000     -70.54430000
H      -44.82690000     -37.14910000     -72.96730000
