40
Properties=species:S:1:pos:R:3 #=T CELL(abcABC):=T 1.889726e+02=T 90.00000=T Traj:=T positionsangstrom=T Step:=T 0=T Bead:=T pbc="F F F"
C      -44.48040000     -30.79490000     -68.14060000
C      -45.26570000     -30.66910000     -69.29780000
C      -46.44700000     -31.40690000     -69.42610000
C      -46.77020000     -32.40740000     -68.46490000
C      -45.93390000     -32.60710000     -67.34930000
C      -44.78060000     -31.73490000     -67.18400000
H      -43.61060000     -30.17550000     -68.05250000
H      -47.09070000     -31.25720000     -70.29530000
H      -46.20310000     -33.38200000     -66.65960000
H      -44.10350000     -31.74660000     -66.26680000
C      -48.06270000     -33.10540000     -68.45860000
H      -48.64780000     -32.34040000     -67.87630000
H      -48.02710000     -34.02520000     -67.84730000
C      -45.03820000     -29.63470000     -70.37130000
H      -45.80670000     -29.84900000     -71.11520000
H      -45.04050000     -28.60900000     -70.03120000
S      -48.83840000     -33.43170000     -70.16700000
S      -43.36660000     -29.88030000     -71.12550000
C      -47.52670000     -33.91640000     -71.34160000
H      -48.16450000     -34.33790000     -72.18530000
H      -47.13830000     -32.96160000     -71.84130000
C      -43.78100000     -31.20970000     -72.42310000
H      -42.91720000     -31.37440000     -73.11990000
H      -44.51710000     -30.84630000     -73.20230000
C      -44.22800000     -32.63490000     -71.90390000
H      -43.75480000     -32.79580000     -70.96960000
H      -45.29300000     -32.50100000     -71.64410000
C      -46.41330000     -34.80070000     -70.76710000
H      -46.78380000     -35.57650000     -70.05950000
H      -45.70840000     -34.16700000     -70.21130000
C      -45.73140000     -35.50600000     -71.93730000
C      -46.09370000     -36.78050000     -72.16380000
C      -44.65220000     -34.99930000     -72.76850000
H      -46.75930000     -37.42590000     -71.73630000
C      -44.31300000     -35.90470000     -73.74190000
C      -43.94400000     -33.76870000     -72.84650000
C      -43.13840000     -33.69860000     -73.91590000
S      -45.21170000     -37.40770000     -73.60650000
S      -43.21400000     -35.24540000     -74.88010000
H      -42.21490000     -32.96320000     -74.09820000
