40
Properties=species:S:1:pos:R:3 #=T CELL(abcABC):=T 1.889726e+02=T 90.00000=T Traj:=T positionsangstrom=T Step:=T 0=T Bead:=T pbc="F F F"
C      -47.13190000     -30.56790000     -73.54510000
C      -46.10590000     -31.43170000     -74.02950000
C      -44.83560000     -31.25950000     -73.46230000
C      -44.51000000     -30.24780000     -72.55460000
C      -45.48140000     -29.40220000     -72.10030000
C      -46.80380000     -29.66210000     -72.54850000
H      -48.18500000     -30.63720000     -73.85600000
H      -44.09050000     -31.95410000     -73.74440000
H      -45.24850000     -28.73320000     -71.33990000
H      -47.61840000     -29.05020000     -72.18300000
C      -43.10040000     -30.13370000     -72.15310000
H      -42.79440000     -29.09700000     -72.19970000
H      -42.53890000     -30.83380000     -72.68280000
C      -46.28240000     -32.49930000     -75.04020000
H      -46.72460000     -32.12410000     -76.00990000
H      -45.41060000     -33.05010000     -75.23250000
S      -42.78030000     -30.59590000     -70.25040000
S      -47.54950000     -33.83780000     -74.56970000
C      -43.39810000     -32.42870000     -70.13910000
H      -43.17040000     -33.00710000     -71.05940000
H      -42.83450000     -32.83770000     -69.23810000
C      -47.06910000     -34.10470000     -72.82770000
H      -47.88160000     -34.87940000     -72.43330000
H      -47.00320000     -33.22760000     -72.14990000
C      -45.60340000     -34.80450000     -72.74100000
H      -45.57990000     -35.49630000     -73.55490000
H      -44.93180000     -33.97770000     -72.93390000
C      -44.92530000     -32.49910000     -69.92830000
H      -45.42620000     -32.56570000     -70.95100000
H      -45.34170000     -31.77140000     -69.20130000
C      -45.23250000     -33.83180000     -69.30850000
C      -45.20990000     -34.00330000     -67.93830000
C      -45.25030000     -35.09310000     -70.00960000
H      -45.29580000     -33.21230000     -67.21860000
C      -45.26400000     -36.16520000     -69.07640000
C      -45.27850000     -35.56700000     -71.41740000
C      -45.14440000     -36.92350000     -71.45310000
S      -45.38370000     -35.74350000     -67.43190000
S      -45.11100000     -37.71670000     -69.89200000
H      -45.22850000     -37.56200000     -72.36870000
