40
Properties=species:S:1:pos:R:3 #=T CELL(abcABC):=T 1.889726e+02=T 90.00000=T Traj:=T positionsangstrom=T Step:=T 0=T Bead:=T pbc="F F F"
C      -44.51660000     -30.66670000     -68.31580000
C      -45.36810000     -30.47700000     -69.30680000
C      -46.53950000     -31.27280000     -69.49410000
C      -46.76710000     -32.33110000     -68.59450000
C      -45.86020000     -32.53460000     -67.50950000
C      -44.83360000     -31.61440000     -67.29660000
H      -43.61160000     -30.05380000     -68.30490000
H      -47.20140000     -31.00360000     -70.35440000
H      -46.14170000     -33.25860000     -66.71580000
H      -44.23350000     -31.63850000     -66.36390000
C      -47.87130000     -33.35470000     -68.63320000
H      -48.46290000     -33.24540000     -67.73200000
H      -47.51240000     -34.36360000     -68.46520000
C      -44.89540000     -29.43530000     -70.38300000
H      -45.63510000     -29.37410000     -71.18870000
H      -44.91680000     -28.42990000     -69.91740000
S      -48.90710000     -33.52560000     -70.09870000
S      -43.23520000     -29.91920000     -71.07690000
C      -47.57300000     -34.05590000     -71.29890000
H      -48.09070000     -34.58770000     -72.04570000
H      -47.09870000     -33.18120000     -71.74440000
C      -43.49160000     -31.25270000     -72.37700000
H      -42.52840000     -31.29500000     -72.81620000
H      -44.17270000     -30.85480000     -73.08360000
C      -44.03810000     -32.54910000     -71.80470000
H      -43.36530000     -32.90940000     -70.97900000
H      -45.10670000     -32.55550000     -71.54940000
C      -46.47970000     -34.96770000     -70.68530000
H      -46.91630000     -35.70850000     -70.03880000
H      -45.79880000     -34.36390000     -70.08420000
C      -45.81590000     -35.62240000     -71.84640000
C      -46.02910000     -36.92080000     -72.18050000
C      -44.79790000     -34.93490000     -72.70790000
H      -46.72950000     -37.56490000     -71.70390000
C      -44.39450000     -35.86360000     -73.70270000
C      -44.04980000     -33.70040000     -72.81880000
C      -43.30910000     -33.65980000     -73.94660000
S      -45.20690000     -37.43340000     -73.64820000
S      -43.31710000     -35.19970000     -74.79620000
H      -42.77290000     -32.72020000     -74.41800000
