40
Properties=species:S:1:pos:R:3 #=T CELL(abcABC):=T 1.889726e+02=T 90.00000=T Traj:=T positionsangstrom=T Step:=T 0=T Bead:=T pbc="F F F"
C      -47.74190000     -30.73620000     -72.79050000
C      -46.81640000     -31.19220000     -73.67710000
C      -45.46920000     -31.05270000     -73.37970000
C      -45.04090000     -30.42440000     -72.22030000
C      -45.98400000     -29.80640000     -71.36790000
C      -47.34100000     -30.04280000     -71.65250000
H      -48.81520000     -30.92340000     -72.92730000
H      -44.72640000     -31.47350000     -74.07200000
H      -45.69560000     -29.30180000     -70.54140000
H      -47.96450000     -29.75050000     -70.86490000
C      -43.59160000     -30.12580000     -71.96960000
H      -43.47250000     -29.02690000     -72.10670000
H      -42.88660000     -30.65960000     -72.69730000
C      -47.35170000     -32.02770000     -74.87670000
H      -48.29810000     -31.55270000     -75.19120000
H      -46.64500000     -31.79510000     -75.74150000
S      -43.06220000     -30.39300000     -70.11670000
S      -47.49280000     -33.86910000     -74.53950000
C      -43.45770000     -32.17550000     -69.92320000
H      -43.26100000     -32.61540000     -70.88450000
H      -42.71940000     -32.58720000     -69.24210000
C      -46.92920000     -34.28030000     -72.82930000
H      -47.28450000     -35.28690000     -72.50660000
H      -47.08040000     -33.43690000     -72.03490000
C      -45.30280000     -34.37270000     -72.83690000
H      -44.89100000     -34.75140000     -73.78830000
H      -44.96480000     -33.29980000     -72.77320000
C      -44.92760000     -32.50910000     -69.60690000
H      -45.60130000     -32.23610000     -70.43190000
H      -45.29680000     -32.01750000     -68.70760000
C      -44.93580000     -33.97220000     -69.26560000
C      -44.54950000     -34.37290000     -68.02450000
C      -44.92610000     -35.04090000     -70.25750000
H      -44.26620000     -33.79440000     -67.20570000
C      -44.80920000     -36.29240000     -69.55480000
C      -45.01790000     -35.30190000     -71.67000000
C      -44.92610000     -36.60970000     -72.01430000
S      -44.50760000     -36.17190000     -67.88310000
S      -44.70850000     -37.64400000     -70.60470000
H      -45.24980000     -37.09650000     -72.89280000
