40
Properties=species:S:1:pos:R:3 #=T CELL(abcABC):=T 1.889726e+02=T 90.00000=T Traj:=T positionsangstrom=T Step:=T 0=T Bead:=T pbc="F F F"
C      -44.34960000     -31.18450000     -68.27940000
C      -45.25070000     -30.83140000     -69.29780000
C      -46.49350000     -31.48970000     -69.33400000
C      -46.90750000     -32.37630000     -68.34230000
C      -46.06890000     -32.70900000     -67.29290000
C      -44.76540000     -32.09910000     -67.32890000
H      -43.34710000     -30.84610000     -68.30200000
H      -47.09660000     -31.19670000     -70.20550000
H      -46.43480000     -33.50270000     -66.68270000
H      -43.97350000     -32.20650000     -66.53390000
C      -48.17070000     -33.21990000     -68.56570000
H      -48.92900000     -32.83220000     -67.92970000
H      -47.95990000     -34.24780000     -68.21290000
C      -44.85500000     -29.70050000     -70.14840000
H      -45.73160000     -29.60250000     -70.82110000
H      -44.72840000     -28.77480000     -69.59830000
S      -49.01550000     -33.22330000     -70.21800000
S      -43.24010000     -29.82020000     -71.19430000
C      -47.76390000     -33.82050000     -71.42430000
H      -48.31860000     -34.47610000     -72.08400000
H      -47.50420000     -33.04080000     -72.06540000
C      -43.64820000     -31.08220000     -72.56720000
H      -42.76200000     -31.15180000     -73.14160000
H      -44.34200000     -30.71320000     -73.25360000
C      -44.30600000     -32.43900000     -72.13630000
H      -44.15570000     -32.78240000     -71.07200000
H      -45.36870000     -32.21480000     -72.31740000
C      -46.51950000     -34.61230000     -70.89870000
H      -46.92160000     -35.42090000     -70.23940000
H      -45.88820000     -33.94580000     -70.35260000
C      -45.76940000     -35.44340000     -71.86530000
C      -46.12340000     -36.73040000     -72.17180000
C      -44.74660000     -34.89830000     -72.78530000
H      -46.88040000     -37.23320000     -71.69060000
C      -44.30440000     -35.87640000     -73.65450000
C      -44.01900000     -33.65950000     -72.97590000
C      -43.07090000     -33.76820000     -73.94460000
S      -45.09130000     -37.39490000     -73.37970000
S      -43.05510000     -35.36690000     -74.74410000
H      -42.37410000     -32.93100000     -74.34950000
