40
Properties=species:S:1:pos:R:3 #=T CELL(abcABC):=T 1.889726e+02=T 90.00000=T Traj:=T positionsangstrom=T Step:=T 0=T Bead:=T pbc="F F F"
C      -43.83040000     -36.77720000     -71.48740000
C      -44.72410000     -36.64690000     -70.44490000
C      -44.26940000     -35.97710000     -69.24360000
C      -42.98770000     -35.36460000     -69.23350000
C      -42.09930000     -35.46240000     -70.33050000
C      -42.56550000     -36.13570000     -71.45580000
H      -44.11390000     -37.32550000     -72.41400000
H      -44.96620000     -35.65760000     -68.47650000
H      -41.08460000     -35.01810000     -70.35700000
H      -41.85520000     -36.42100000     -72.22980000
C      -42.62600000     -34.54970000     -68.05290000
H      -41.55690000     -34.39210000     -67.89930000
H      -42.95900000     -34.94480000     -67.18290000
C      -46.12510000     -37.20240000     -70.62320000
H      -46.27970000     -37.56550000     -71.60100000
H      -46.44680000     -38.00720000     -69.93770000
S      -43.50770000     -32.90450000     -68.00240000
S      -47.53210000     -36.01070000     -70.31520000
C      -43.71510000     -32.38280000     -69.77420000
H      -43.13690000     -31.42770000     -69.96220000
H      -43.33950000     -33.18750000     -70.39430000
C      -47.38210000     -35.04680000     -71.94270000
H      -47.72820000     -35.56060000     -72.81500000
H      -46.28060000     -34.94370000     -72.17410000
C      -47.94040000     -33.60400000     -71.87250000
H      -49.04080000     -33.60470000     -72.03430000
H      -47.86290000     -33.16560000     -70.86950000
C      -45.20800000     -32.16500000     -70.21970000
H      -45.58050000     -31.64810000     -69.38130000
H      -45.68740000     -33.15810000     -70.25100000
C      -45.35850000     -31.32820000     -71.47170000
C      -44.46140000     -30.29090000     -71.79350000
C      -46.24850000     -31.62800000     -72.53480000
H      -43.61760000     -29.93400000     -71.20650000
C      -46.17560000     -30.66580000     -73.52970000
C      -47.33550000     -32.56010000     -72.75260000
C      -47.91610000     -32.38050000     -73.98940000
S      -44.83180000     -29.57850000     -73.34850000
S      -47.23570000     -30.98070000     -74.81870000
H      -48.56710000     -33.02850000     -74.51390000
