40
Properties=species:S:1:pos:R:3 #=T CELL(abcABC):=T 1.889726e+02=T 90.00000=T Traj:=T positionsangstrom=T Step:=T 0=T Bead:=T pbc="F F F"
C      -47.64810000     -30.52800000     -73.05120000
C      -46.61920000     -31.16690000     -73.74380000
C      -45.27270000     -31.07850000     -73.39210000
C      -44.84680000     -30.14050000     -72.46810000
C      -45.82800000     -29.34140000     -71.91780000
C      -47.19290000     -29.66990000     -72.08820000
H      -48.72540000     -30.63850000     -73.26110000
H      -44.60600000     -31.67640000     -73.93900000
H      -45.47920000     -28.56280000     -71.22810000
H      -47.96940000     -29.05580000     -71.53960000
C      -43.43140000     -29.89010000     -72.10990000
H      -43.13810000     -28.81570000     -72.19870000
H      -42.71000000     -30.42850000     -72.69410000
C      -47.05360000     -32.07760000     -74.86580000
H      -47.87530000     -31.57480000     -75.47710000
H      -46.26380000     -32.09870000     -75.62470000
S      -43.07370000     -30.46180000     -70.24800000
S      -47.45770000     -33.85040000     -74.39610000
C      -43.41070000     -32.27920000     -70.29610000
H      -43.29600000     -32.60540000     -71.30790000
H      -42.63100000     -32.71470000     -69.78270000
C      -46.60430000     -34.12030000     -72.71850000
H      -47.19790000     -34.98920000     -72.31820000
H      -46.83950000     -33.21310000     -72.02390000
C      -45.00720000     -34.57300000     -72.65470000
H      -44.74810000     -35.07440000     -73.57400000
H      -44.46890000     -33.62620000     -72.59230000
C      -44.84640000     -32.58820000     -69.77900000
H      -45.66750000     -32.30940000     -70.53840000
H      -45.06450000     -31.98280000     -68.88590000
C      -45.04540000     -34.05140000     -69.34320000
C      -45.24710000     -34.36380000     -68.00270000
C      -44.99310000     -35.24350000     -70.16440000
H      -45.20550000     -33.70360000     -67.11220000
C      -45.01640000     -36.41770000     -69.36610000
C      -44.82430000     -35.56000000     -71.56130000
C      -44.66470000     -36.88600000     -71.75020000
S      -45.18800000     -36.07330000     -67.71210000
S      -44.73140000     -37.86460000     -70.21310000
H      -44.27530000     -37.34550000     -72.63570000
