40
Properties=species:S:1:pos:R:3 #=T CELL(abcABC):=T 1.889726e+02=T 90.00000=T Traj:=T positionsangstrom=T Step:=T 0=T Bead:=T pbc="F F F"
C      -45.44370000     -31.26200000     -74.68010000
C      -44.85360000     -31.35540000     -73.44450000
C      -45.69220000     -31.81640000     -72.42340000
C      -47.05030000     -32.00320000     -72.56180000
C      -47.57210000     -31.75740000     -73.80740000
C      -46.81040000     -31.34140000     -74.89330000
H      -44.86320000     -30.96460000     -75.58020000
H      -45.34420000     -32.07030000     -71.41980000
H      -48.67460000     -31.83600000     -73.86470000
H      -47.26870000     -31.19050000     -75.80380000
C      -47.83280000     -32.55300000     -71.41570000
H      -48.65080000     -31.90880000     -71.15890000
H      -47.18720000     -32.66720000     -70.52610000
C      -43.37430000     -31.10650000     -73.16820000
H      -42.76160000     -30.44430000     -73.83530000
H      -43.31350000     -30.78730000     -72.12500000
S      -48.50220000     -34.23490000     -71.73440000
S      -42.35030000     -32.69690000     -73.39070000
C      -46.98210000     -35.21550000     -72.15670000
H      -47.08140000     -35.84510000     -73.06470000
H      -46.17130000     -34.48350000     -72.32120000
C      -43.44500000     -34.15640000     -73.11650000
H      -43.33740000     -34.75700000     -74.05020000
H      -44.52730000     -33.82080000     -73.20960000
C      -43.26250000     -35.03230000     -71.88780000
H      -43.95300000     -35.88990000     -72.09430000
H      -42.22090000     -35.54280000     -71.87880000
C      -46.56240000     -36.13810000     -71.04890000
H      -45.79910000     -36.76640000     -71.40530000
H      -47.36820000     -36.78170000     -70.67200000
C      -45.99670000     -35.29600000     -69.84380000
C      -46.79240000     -35.09240000     -68.72280000
C      -44.81750000     -34.51810000     -69.80800000
H      -47.86320000     -35.36070000     -68.65340000
C      -44.85660000     -33.64490000     -68.70620000
C      -43.58940000     -34.37690000     -70.57900000
C      -42.75200000     -33.48160000     -69.97500000
S      -46.17730000     -33.88400000     -67.65920000
S      -43.30890000     -32.87250000     -68.50870000
H      -41.75030000     -33.21920000     -70.33640000
