40
Properties=species:S:1:pos:R:3 #=T CELL(abcABC):=T 1.889726e+02=T 90.00000=T Traj:=T positionsangstrom=T Step:=T 0=T Bead:=T pbc="F F F"
C      -48.10280000     -30.40340000     -72.57010000
C      -47.03790000     -30.95690000     -73.30530000
C      -45.73120000     -30.67200000     -72.83820000
C      -45.45020000     -29.80530000     -71.70670000
C      -46.54310000     -29.11640000     -71.21140000
C      -47.84310000     -29.54040000     -71.54090000
H      -49.15420000     -30.64000000     -72.83090000
H      -44.91200000     -31.15280000     -73.44240000
H      -46.35750000     -28.35010000     -70.41870000
H      -48.65500000     -29.27720000     -70.88750000
C      -44.02680000     -29.57210000     -71.27750000
H      -43.84200000     -28.53990000     -71.14790000
H      -43.34190000     -29.95480000     -72.01120000
C      -47.22940000     -31.95820000     -74.37290000
H      -47.83190000     -31.54970000     -75.15760000
H      -46.26950000     -32.31480000     -74.55870000
S      -43.68400000     -30.19670000     -69.57530000
S      -48.21110000     -33.40110000     -73.73650000
C      -43.23190000     -31.96130000     -69.84810000
H      -42.35260000     -32.01270000     -70.47960000
H      -42.99420000     -32.24060000     -68.81910000
C      -47.12670000     -34.17720000     -72.42150000
H      -47.77670000     -34.89350000     -71.85820000
H      -46.91980000     -33.36570000     -71.63300000
C      -45.95840000     -34.89950000     -72.99300000
H      -46.26780000     -35.57190000     -73.83470000
H      -45.25640000     -34.19570000     -73.44960000
C      -44.43170000     -32.87790000     -70.22030000
H      -44.59600000     -32.77470000     -71.32150000
H      -45.39940000     -32.58880000     -69.74910000
C      -44.21030000     -34.34970000     -69.90700000
C      -43.60130000     -34.75760000     -68.76680000
C      -44.50190000     -35.51080000     -70.77990000
H      -43.28850000     -34.13920000     -67.92100000
C      -44.09010000     -36.67710000     -70.17930000
C      -45.20970000     -35.74160000     -72.04770000
C      -45.10190000     -37.06810000     -72.34110000
S      -43.37960000     -36.49800000     -68.60770000
S      -44.32750000     -38.10910000     -71.12920000
H      -45.58760000     -37.46190000     -73.23260000
