40
Properties=species:S:1:pos:R:3 #=T CELL(abcABC):=T 1.889726e+02=T 90.00000=T Traj:=T positionsangstrom=T Step:=T 0=T Bead:=T pbc="F F F"
C      -47.83380000     -30.88050000     -72.76670000
C      -46.66370000     -31.21010000     -73.52170000
C      -45.45630000     -30.72670000     -73.06790000
C      -45.41210000     -29.86200000     -71.92460000
C      -46.61120000     -29.48630000     -71.30650000
C      -47.79700000     -30.06270000     -71.69380000
H      -48.84350000     -31.17440000     -73.05060000
H      -44.50190000     -31.04060000     -73.57330000
H      -46.47920000     -28.77830000     -70.47150000
H      -48.68410000     -29.87570000     -71.07160000
C      -44.10400000     -29.36350000     -71.51260000
H      -44.12590000     -28.31870000     -71.12090000
H      -43.42060000     -29.27820000     -72.33280000
C      -46.65970000     -32.16060000     -74.72630000
H      -47.12440000     -31.54220000     -75.49730000
H      -45.68320000     -32.55430000     -74.96270000
S      -43.26820000     -30.30800000     -70.07220000
S      -47.78410000     -33.69520000     -74.38800000
C      -43.48440000     -32.01380000     -70.61330000
H      -43.66840000     -32.00350000     -71.74260000
H      -42.63450000     -32.52380000     -70.18050000
C      -47.09290000     -34.12330000     -72.73700000
H      -47.66390000     -34.84720000     -72.21790000
H      -47.30330000     -33.29940000     -72.14490000
C      -45.51290000     -34.48430000     -72.71740000
H      -45.23790000     -34.80440000     -73.66910000
H      -45.10560000     -33.48780000     -72.52760000
C      -44.67050000     -32.71470000     -69.94210000
H      -45.60280000     -32.82530000     -70.59700000
H      -44.91760000     -32.22490000     -69.03580000
C      -44.34480000     -34.17520000     -69.55020000
C      -43.81270000     -34.57390000     -68.30610000
C      -44.61180000     -35.31470000     -70.36160000
H      -43.46890000     -33.85410000     -67.63330000
C      -44.44390000     -36.51850000     -69.63760000
C      -45.28130000     -35.56170000     -71.63000000
C      -45.44410000     -36.95460000     -71.94310000
S      -43.72270000     -36.27350000     -68.09100000
S      -44.91030000     -37.90980000     -70.57770000
H      -45.96770000     -37.48920000     -72.77440000
