40
Properties=species:S:1:pos:R:3 #=T CELL(abcABC):=T 1.889726e+02=T 90.00000=T Traj:=T positionsangstrom=T Step:=T 0=T Bead:=T pbc="F F F"
C      -48.06680000     -30.53120000     -72.57380000
C      -46.88560000     -31.08070000     -73.16030000
C      -45.62270000     -30.68590000     -72.74400000
C      -45.54530000     -29.73640000     -71.69410000
C      -46.68090000     -29.13070000     -71.19700000
C      -47.95750000     -29.42540000     -71.73290000
H      -49.07110000     -30.80120000     -72.88780000
H      -44.82620000     -31.06470000     -73.32420000
H      -46.76140000     -28.40860000     -70.42920000
H      -48.81340000     -28.92510000     -71.30220000
C      -44.18530000     -29.23350000     -71.18760000
H      -44.33680000     -28.16830000     -70.82820000
H      -43.47370000     -29.23450000     -71.96180000
C      -47.01690000     -31.97690000     -74.32550000
H      -47.65770000     -31.55960000     -75.06830000
H      -46.07210000     -32.17990000     -74.83650000
S      -43.53190000     -30.34820000     -69.85740000
S      -47.94180000     -33.66800000     -74.18180000
C      -43.41970000     -32.03740000     -70.47690000
H      -43.27420000     -32.08100000     -71.49100000
H      -42.41800000     -32.39610000     -70.14240000
C      -47.08530000     -34.45120000     -72.71310000
H      -47.55070000     -35.44420000     -72.67720000
H      -47.20680000     -34.00790000     -71.71780000
C      -45.59030000     -34.70630000     -72.89100000
H      -45.35120000     -35.10950000     -73.86640000
H      -45.24780000     -33.66570000     -72.66710000
C      -44.61780000     -32.86000000     -69.99220000
H      -45.30140000     -32.65420000     -70.77910000
H      -45.07410000     -32.43760000     -69.04220000
C      -44.21560000     -34.29420000     -69.75220000
C      -43.63490000     -34.64430000     -68.53690000
C      -44.45290000     -35.39490000     -70.63470000
H      -43.40260000     -33.84150000     -67.81100000
C      -44.09030000     -36.63920000     -70.01900000
C      -45.07590000     -35.64050000     -71.88020000
C      -45.35300000     -37.02560000     -72.09000000
S      -43.32790000     -36.41150000     -68.45680000
S      -44.74490000     -38.03600000     -70.79100000
H      -45.91630000     -37.38290000     -72.99080000
