40
Properties=species:S:1:pos:R:3 #=T CELL(abcABC):=T 1.889726e+02=T 90.00000=T Traj:=T positionsangstrom=T Step:=T 0=T Bead:=T pbc="F F F"
C      -45.18750000     -29.67430000     -71.36630000
C      -45.14480000     -30.27730000     -72.67260000
C      -44.12170000     -31.18830000     -73.00470000
C      -43.04620000     -31.39880000     -72.09450000
C      -43.09880000     -30.76610000     -70.83010000
C      -44.19430000     -29.95940000     -70.44760000
H      -45.95950000     -28.94120000     -71.00400000
H      -43.98980000     -31.38920000     -74.06510000
H      -42.21640000     -30.86870000     -70.18710000
H      -44.22080000     -29.40120000     -69.48100000
C      -41.89020000     -32.32500000     -72.52800000
H      -41.21920000     -32.57050000     -71.68280000
H      -41.20690000     -31.82540000     -73.22300000
C      -46.19360000     -30.01660000     -73.68250000
H      -46.73790000     -29.06860000     -73.40390000
H      -45.77220000     -29.80900000     -74.70300000
S      -42.30450000     -33.82310000     -73.48500000
S      -47.40560000     -31.44640000     -73.94220000
C      -43.25270000     -35.00270000     -72.43400000
H      -44.04340000     -35.49860000     -72.90720000
H      -42.55180000     -35.83990000     -72.27820000
C      -47.70280000     -32.29280000     -72.31950000
H      -48.74690000     -32.51130000     -72.31300000
H      -47.40270000     -31.59500000     -71.47560000
C      -46.79030000     -33.54020000     -72.11900000
H      -46.98140000     -34.16750000     -73.00380000
H      -45.70950000     -33.19690000     -72.24020000
C      -43.64840000     -34.31500000     -71.06920000
H      -44.10380000     -33.45500000     -71.41620000
H      -42.76150000     -34.02590000     -70.54820000
C      -44.53260000     -35.08820000     -70.14860000
C      -44.06830000     -35.89240000     -69.12320000
C      -46.01870000     -35.04550000     -70.11220000
H      -43.01570000     -36.02930000     -68.93090000
C      -46.53270000     -35.80760000     -69.09350000
C      -47.03690000     -34.34870000     -70.86060000
C      -48.30040000     -34.65000000     -70.36400000
S      -45.31750000     -36.52620000     -68.12920000
S      -48.28930000     -35.71890000     -68.98270000
H      -49.27070000     -34.39590000     -70.82190000
