40
Properties=species:S:1:pos:R:3 #=T CELL(abcABC):=T 1.889726e+02=T 90.00000=T Traj:=T positionsangstrom=T Step:=T 0=T Bead:=T pbc="F F F"
C      -47.98690000     -29.81730000     -72.74540000
C      -47.00470000     -30.60670000     -73.22860000
C      -45.71260000     -30.66380000     -72.57920000
C      -45.41810000     -29.78460000     -71.50970000
C      -46.39600000     -28.93220000     -71.06110000
C      -47.68750000     -28.99190000     -71.62560000
H      -48.92470000     -29.82140000     -73.31020000
H      -44.85850000     -31.24340000     -73.03970000
H      -46.15290000     -28.30610000     -70.19870000
H      -48.43420000     -28.38990000     -71.18380000
C      -44.01810000     -29.85210000     -70.97320000
H      -43.60660000     -28.79960000     -71.01010000
H      -43.37890000     -30.52210000     -71.62220000
C      -47.28470000     -31.72150000     -74.23500000
H      -47.99300000     -31.24290000     -74.94230000
H      -46.42520000     -32.08680000     -74.85260000
S      -44.08660000     -30.43550000     -69.17930000
S      -48.25970000     -33.05190000     -73.48010000
C      -43.38120000     -32.25340000     -69.34460000
H      -42.41580000     -32.10910000     -69.85550000
H      -43.14250000     -32.42160000     -68.25890000
C      -47.13740000     -33.80630000     -72.29260000
H      -47.74350000     -34.47890000     -71.71610000
H      -46.83170000     -33.01880000     -71.50880000
C      -45.86640000     -34.50930000     -72.92450000
H      -45.99380000     -34.86470000     -73.99870000
H      -45.11250000     -33.76670000     -72.99450000
C      -44.27710000     -33.16200000     -70.10540000
H      -44.25370000     -33.04630000     -71.24360000
H      -45.32700000     -33.11030000     -69.63810000
C      -43.85510000     -34.65100000     -70.06460000
C      -42.98800000     -35.18110000     -69.10900000
C      -44.31690000     -35.63290000     -70.98940000
H      -42.66900000     -34.58650000     -68.21070000
C      -44.06720000     -36.93980000     -70.52060000
C      -45.19240000     -35.65150000     -72.11220000
C      -45.54550000     -36.95600000     -72.51080000
S      -43.05870000     -36.92570000     -69.07650000
S      -44.72350000     -38.20520000     -71.51740000
H      -46.20070000     -37.16780000     -73.38070000
