40
Properties=species:S:1:pos:R:3 #=T CELL(abcABC):=T 1.889726e+02=T 90.00000=T Traj:=T positionsangstrom=T Step:=T 0=T Bead:=T pbc="F F F"
C      -47.91340000     -29.93110000     -72.63220000
C      -46.92650000     -30.72080000     -73.18900000
C      -45.58960000     -30.55570000     -72.70270000
C      -45.29340000     -29.66330000     -71.65220000
C      -46.35400000     -28.89490000     -71.06010000
C      -47.66500000     -28.97240000     -71.63340000
H      -48.86660000     -30.27510000     -72.86350000
H      -44.83210000     -31.25440000     -73.03370000
H      -46.09670000     -28.17220000     -70.34250000
H      -48.39520000     -28.32780000     -71.16790000
C      -43.91240000     -29.67670000     -70.96060000
H      -43.60430000     -28.71560000     -70.76390000
H      -43.07800000     -30.23910000     -71.36110000
C      -47.25700000     -31.72590000     -74.21400000
H      -47.94200000     -31.42320000     -74.94600000
H      -46.45310000     -32.15860000     -74.80880000
S      -44.12810000     -30.46460000     -69.22590000
S      -48.17330000     -33.21730000     -73.38630000
C      -43.49890000     -32.14000000     -69.41960000
H      -42.53320000     -32.15540000     -69.83510000
H      -43.36790000     -32.62980000     -68.46530000
C      -46.93240000     -33.80500000     -72.19580000
H      -47.49130000     -34.47710000     -71.53960000
H      -46.55190000     -33.02790000     -71.56940000
C      -45.81700000     -34.64220000     -72.98810000
H      -46.38420000     -35.07180000     -73.87790000
H      -45.03200000     -33.91370000     -73.25040000
C      -44.48850000     -33.15820000     -70.13170000
H      -44.41190000     -32.80230000     -71.19760000
H      -45.47160000     -32.92220000     -69.86160000
C      -44.23630000     -34.60950000     -69.95030000
C      -43.35860000     -35.07670000     -68.98250000
C      -44.59150000     -35.66200000     -70.90150000
H      -42.88900000     -34.44650000     -68.27310000
C      -44.22080000     -36.94820000     -70.41290000
C      -45.31110000     -35.74000000     -72.13100000
C      -45.43680000     -37.05020000     -72.55220000
S      -43.01770000     -36.78730000     -69.15700000
S      -44.55760000     -38.19150000     -71.58020000
H      -46.11570000     -37.29460000     -73.39120000
