40
Properties=species:S:1:pos:R:3 #=T CELL(abcABC):=T 1.889726e+02=T 90.00000=T Traj:=T positionsangstrom=T Step:=T 0=T Bead:=T pbc="F F F"
C      -42.89990000     -29.84740000     -71.79310000
C      -43.77550000     -30.59370000     -72.59370000
C      -43.46310000     -31.95590000     -72.89240000
C      -42.30410000     -32.50750000     -72.42610000
C      -41.31440000     -31.62610000     -71.75300000
C      -41.71670000     -30.34230000     -71.33580000
H      -43.13400000     -28.76650000     -71.50680000
H      -44.31280000     -32.56510000     -73.26760000
H      -40.41030000     -32.02920000     -71.50700000
H      -41.03790000     -29.73980000     -70.71680000
C      -41.92440000     -33.93110000     -72.74140000
H      -41.71060000     -34.37460000     -71.74760000
H      -41.02910000     -34.04110000     -73.35450000
C      -44.87630000     -29.89840000     -73.29080000
H      -44.95400000     -28.93120000     -72.75840000
H      -44.63040000     -29.60380000     -74.29310000
S      -43.15620000     -34.96520000     -73.64550000
S      -46.55530000     -30.71350000     -73.56530000
C      -44.52380000     -35.32130000     -72.34760000
H      -45.38040000     -34.65710000     -72.48860000
H      -44.98290000     -36.34510000     -72.40830000
C      -47.17840000     -31.15550000     -71.86810000
H      -48.17310000     -31.56010000     -71.99800000
H      -47.19910000     -30.26800000     -71.10360000
C      -46.28210000     -32.28110000     -71.25550000
H      -45.73710000     -32.77390000     -72.01580000
H      -45.52820000     -31.83900000     -70.61930000
C      -44.14280000     -35.12650000     -70.81090000
H      -43.66510000     -34.18450000     -70.65910000
H      -43.38420000     -35.88550000     -70.68020000
C      -45.36800000     -35.44190000     -69.95720000
C      -45.46350000     -36.60070000     -69.22290000
C      -46.52590000     -34.62830000     -69.94310000
H      -44.76280000     -37.33570000     -68.93140000
C      -47.52710000     -35.27350000     -69.15670000
C      -47.06320000     -33.36910000     -70.44310000
C      -48.32250000     -33.06840000     -69.99590000
S      -47.02840000     -36.80390000     -68.45530000
S      -49.07450000     -34.43500000     -69.14230000
H      -48.98060000     -32.24810000     -70.34010000
