40
Properties=species:S:1:pos:R:3 #=T CELL(abcABC):=T 1.889726e+02=T 90.00000=T Traj:=T positionsangstrom=T Step:=T 0=T Bead:=T pbc="F F F"
C      -45.34510000     -29.71320000     -71.27500000
C      -45.47430000     -30.23660000     -72.58100000
C      -44.44470000     -31.03690000     -73.11010000
C      -43.24410000     -31.22770000     -72.38470000
C      -43.07120000     -30.59370000     -71.09990000
C      -44.07240000     -29.78600000     -70.60750000
H      -46.09320000     -29.02950000     -70.94260000
H      -44.64160000     -31.47390000     -74.05240000
H      -42.17340000     -30.75310000     -70.53290000
H      -43.95890000     -29.34890000     -69.61680000
C      -42.08750000     -31.95500000     -73.05570000
H      -41.30180000     -32.11250000     -72.32750000
H      -41.73480000     -31.46670000     -73.98100000
C      -46.82460000     -30.10290000     -73.34490000
H      -47.60470000     -29.46980000     -72.90640000
H      -46.60460000     -29.69970000     -74.32640000
S      -42.50190000     -33.66010000     -73.64810000
S      -47.66340000     -31.68330000     -73.76470000
C      -43.46200000     -34.67930000     -72.46550000
H      -44.44030000     -34.74750000     -72.87700000
H      -43.12270000     -35.67040000     -72.44240000
C      -47.71630000     -32.56480000     -72.11580000
H      -48.77710000     -32.99790000     -71.85610000
H      -47.49920000     -31.80050000     -71.38300000
C      -46.63200000     -33.68240000     -72.09880000
H      -46.81470000     -34.12560000     -73.02370000
H      -45.62550000     -33.38310000     -72.05920000
C      -43.48190000     -34.11740000     -70.96280000
H      -43.81000000     -33.08690000     -70.96110000
H      -42.39390000     -34.12760000     -70.75320000
C      -44.31930000     -34.99050000     -70.07200000
C      -43.77450000     -35.63210000     -68.98050000
C      -45.74440000     -35.05360000     -70.01680000
H      -42.73970000     -35.78820000     -68.86240000
C      -46.31780000     -35.65120000     -68.87440000
C      -46.84980000     -34.65880000     -70.95760000
C      -48.08400000     -35.14020000     -70.54590000
S      -45.02700000     -36.41240000     -67.94840000
S      -47.97910000     -36.06270000     -69.06440000
H      -48.99770000     -34.97880000     -71.07070000
