40
Properties=species:S:1:pos:R:3 #=T CELL(abcABC):=T 1.889726e+02=T 90.00000=T Traj:=T positionsangstrom=T Step:=T 0=T Bead:=T pbc="F F F"
C      -45.55240000     -29.72440000     -71.29660000
C      -45.78200000     -30.28560000     -72.56460000
C      -44.68270000     -30.99590000     -73.14410000
C      -43.44290000     -31.12950000     -72.50970000
C      -43.18090000     -30.41700000     -71.32040000
C      -44.29460000     -29.84340000     -70.65600000
H      -46.30980000     -29.10360000     -70.83160000
H      -44.80320000     -31.53270000     -74.03760000
H      -42.28950000     -30.66620000     -70.69080000
H      -44.15600000     -29.46690000     -69.65870000
C      -42.29330000     -31.83400000     -73.18500000
H      -41.39600000     -31.68670000     -72.57700000
H      -42.17340000     -31.31730000     -74.10180000
C      -47.13150000     -30.26700000     -73.28040000
H      -47.86070000     -29.73680000     -72.63240000
H      -47.08490000     -29.69810000     -74.21500000
S      -42.67270000     -33.61750000     -73.73420000
S      -47.89490000     -31.82570000     -73.82210000
C      -43.15230000     -34.67090000     -72.15250000
H      -44.09300000     -35.17590000     -72.31410000
H      -42.50750000     -35.48340000     -71.93690000
C      -47.78710000     -32.93910000     -72.27040000
H      -48.74230000     -33.50140000     -72.42400000
H      -47.91660000     -32.25950000     -71.39880000
C      -46.53510000     -33.77780000     -72.18760000
H      -46.29120000     -34.28920000     -73.04070000
H      -45.74500000     -33.05440000     -71.97520000
C      -43.40690000     -33.83440000     -70.88400000
H      -43.95160000     -32.95230000     -71.18830000
H      -42.45230000     -33.44960000     -70.48280000
C      -44.23120000     -34.63920000     -69.90930000
C      -43.61240000     -35.28860000     -68.83280000
C      -45.62200000     -35.01700000     -70.00090000
H      -42.59160000     -35.07370000     -68.46020000
C      -45.97640000     -35.91790000     -69.00550000
C      -46.72100000     -34.68210000     -70.90700000
C      -47.91150000     -35.35240000     -70.60220000
S      -44.75290000     -36.22260000     -67.79080000
S      -47.68420000     -36.24770000     -69.04610000
H      -48.85690000     -35.04480000     -71.13000000
