40
Properties=species:S:1:pos:R:3 #=T CELL(abcABC):=T 1.889726e+02=T 90.00000=T Traj:=T positionsangstrom=T Step:=T 0=T Bead:=T pbc="F F F"
C      -45.26670000     -29.63550000     -71.36840000
C      -45.32070000     -30.27630000     -72.62520000
C      -44.25330000     -31.09420000     -73.03850000
C      -43.16660000     -31.40840000     -72.20630000
C      -43.09400000     -30.71350000     -70.96680000
C      -44.13840000     -29.92240000     -70.58020000
H      -46.12700000     -29.06880000     -70.98470000
H      -44.45850000     -31.72180000     -73.89170000
H      -42.31700000     -30.87860000     -70.15680000
H      -44.11270000     -29.50960000     -69.61310000
C      -41.99890000     -32.27040000     -72.59560000
H      -41.36450000     -32.51640000     -71.69330000
H      -41.36780000     -31.62970000     -73.24250000
C      -46.53970000     -29.99310000     -73.50580000
H      -47.17590000     -29.27800000     -72.94320000
H      -46.36380000     -29.51640000     -74.44520000
S      -42.42950000     -33.79000000     -73.57720000
S      -47.51530000     -31.50720000     -73.88710000
C      -43.37390000     -34.77320000     -72.36500000
H      -44.40130000     -34.99380000     -72.82060000
H      -42.87940000     -35.78330000     -72.24920000
C      -47.66970000     -32.38740000     -72.20860000
H      -48.72760000     -32.59310000     -72.05970000
H      -47.44520000     -31.59900000     -71.53450000
C      -46.82400000     -33.65340000     -72.18060000
H      -47.03730000     -34.36270000     -73.04590000
H      -45.75480000     -33.30930000     -72.37030000
C      -43.53010000     -34.11280000     -70.96120000
H      -44.11010000     -33.18110000     -70.93630000
H      -42.54590000     -33.97080000     -70.39830000
C      -44.43850000     -34.98900000     -70.10900000
C      -43.90000000     -35.71330000     -69.05010000
C      -45.85330000     -35.08320000     -70.15380000
H      -42.95320000     -35.54780000     -68.64610000
C      -46.38300000     -35.89190000     -69.16170000
C      -46.92740000     -34.50320000     -70.91650000
C      -48.17420000     -34.76820000     -70.36860000
S      -45.16010000     -36.49410000     -68.05710000
S      -48.10340000     -35.89150000     -69.04020000
H      -49.13160000     -34.54430000     -70.84620000
