40
Properties=species:S:1:pos:R:3 #=T CELL(abcABC):=T 1.889726e+02=T 90.00000=T Traj:=T positionsangstrom=T Step:=T 0=T Bead:=T pbc="F F F"
C      -46.01790000     -35.82040000     -71.03950000
C      -44.68630000     -35.70330000     -70.69780000
C      -43.82130000     -35.37140000     -71.74460000
C      -44.24750000     -35.01790000     -73.03770000
C      -45.63040000     -35.27140000     -73.40270000
C      -46.42910000     -35.72550000     -72.38530000
H      -46.71590000     -36.09950000     -70.27550000
H      -42.80210000     -35.21350000     -71.56120000
H      -46.08440000     -35.07500000     -74.36690000
H      -47.50470000     -35.95490000     -72.71300000
C      -43.35680000     -34.48200000     -74.10970000
H      -43.57520000     -34.94330000     -75.06750000
H      -42.38920000     -34.91920000     -73.79100000
C      -44.12080000     -36.06980000     -69.36480000
H      -44.63200000     -36.92730000     -68.98170000
H      -43.02130000     -36.29790000     -69.51400000
S      -43.25910000     -32.70510000     -74.32310000
S      -44.20840000     -34.74690000     -68.03610000
C      -42.98260000     -32.06440000     -72.63880000
H      -43.16900000     -32.84080000     -71.93530000
H      -41.97480000     -31.67840000     -72.49530000
C      -43.57000000     -33.25570000     -68.93530000
H      -43.41430000     -33.39000000     -69.98970000
H      -42.53420000     -33.06490000     -68.61120000
C      -44.45240000     -31.97820000     -68.73940000
H      -44.67090000     -31.78060000     -67.67870000
H      -43.94900000     -31.03460000     -69.01720000
C      -44.02970000     -30.91110000     -72.26570000
H      -43.99130000     -30.23060000     -73.09370000
H      -43.56790000     -30.41520000     -71.39670000
C      -45.42780000     -31.31430000     -72.11450000
C      -46.29480000     -31.35400000     -73.17150000
C      -46.04740000     -31.89520000     -70.86520000
H      -45.92890000     -30.93160000     -74.13140000
C      -47.33020000     -32.37740000     -71.21030000
C      -45.75100000     -32.08700000     -69.42440000
C      -46.78730000     -32.65300000     -68.76560000
S      -47.89530000     -32.02310000     -72.83810000
S      -48.16130000     -33.03690000     -69.83550000
H      -46.73980000     -32.77930000     -67.61970000
