40
Properties=species:S:1:pos:R:3 #=T CELL(abcABC):=T 1.889726e+02=T 90.00000=T Traj:=T positionsangstrom=T Step:=T 0=T Bead:=T pbc="F F F"
C      -43.56020000     -36.71030000     -71.53520000
C      -44.51110000     -36.58020000     -70.48320000
C      -44.16040000     -35.76850000     -69.46080000
C      -42.87990000     -35.23100000     -69.25290000
C      -41.96340000     -35.40630000     -70.28700000
C      -42.31650000     -36.17490000     -71.37340000
H      -43.68540000     -37.19690000     -72.42450000
H      -44.99500000     -35.72440000     -68.70920000
H      -40.97630000     -35.01350000     -70.22940000
H      -41.66900000     -36.02300000     -72.25750000
C      -42.59620000     -34.32790000     -68.03770000
H      -41.64980000     -33.88820000     -68.31130000
H      -42.48370000     -34.85030000     -67.12200000
C      -45.93670000     -37.16840000     -70.56130000
H      -45.98270000     -37.70040000     -71.49160000
H      -45.97970000     -37.92180000     -69.81610000
S      -43.93020000     -33.03530000     -67.85830000
S      -47.29390000     -36.01200000     -70.28320000
C      -43.89220000     -32.20750000     -69.50510000
H      -43.43550000     -31.24950000     -69.44290000
H      -43.25000000     -32.78570000     -70.10120000
C      -47.12570000     -34.90150000     -71.80730000
H      -47.49370000     -35.61320000     -72.62220000
H      -46.07760000     -34.79450000     -71.83190000
C      -47.95910000     -33.58520000     -71.73270000
H      -49.03610000     -33.76560000     -71.98250000
H      -47.82390000     -33.13960000     -70.74090000
C      -45.29500000     -32.03130000     -70.10270000
H      -45.94570000     -31.44980000     -69.38470000
H      -45.91230000     -33.02770000     -70.14390000
C      -45.31490000     -31.40830000     -71.52440000
C      -44.42670000     -30.42600000     -71.94530000
C      -46.33270000     -31.65440000     -72.55340000
H      -43.52920000     -30.14450000     -71.35850000
C      -46.18240000     -30.84730000     -73.66840000
C      -47.43350000     -32.52600000     -72.80420000
C      -48.14040000     -32.31520000     -73.96560000
S      -44.81600000     -29.83070000     -73.58300000
S      -47.45540000     -30.99550000     -74.85980000
H      -49.04310000     -32.70460000     -74.38240000
