40
Properties=species:S:1:pos:R:3 #=T CELL(abcABC):=T 1.889726e+02=T 90.00000=T Traj:=T positionsangstrom=T Step:=T 0=T Bead:=T pbc="F F F"
C      -45.86100000     -35.88040000     -71.72090000
C      -44.38950000     -35.83530000     -71.66670000
C      -43.73760000     -35.14700000     -72.68070000
C      -44.39150000     -34.42760000     -73.68800000
C      -45.78020000     -34.40360000     -73.60940000
C      -46.54400000     -35.18340000     -72.73470000
H      -46.46210000     -36.46650000     -71.05060000
H      -42.64050000     -35.14600000     -72.53400000
H      -46.35530000     -33.80420000     -74.30200000
H      -47.61760000     -35.12660000     -72.95370000
C      -43.58570000     -33.61380000     -74.69590000
H      -43.87240000     -33.84650000     -75.73820000
H      -42.51300000     -33.64720000     -74.50770000
C      -43.67070000     -36.47190000     -70.49310000
H      -44.21580000     -37.37510000     -70.25810000
H      -42.61800000     -36.64070000     -70.63110000
S      -44.09790000     -31.89890000     -74.41230000
S      -43.87790000     -35.35730000     -68.91160000
C      -43.45660000     -31.64870000     -72.66540000
H      -43.39870000     -32.58690000     -72.17720000
H      -42.39100000     -31.26680000     -72.60850000
C      -42.98530000     -33.81540000     -69.45440000
H      -42.95370000     -33.82230000     -70.53230000
H      -41.94960000     -33.76550000     -69.08280000
C      -43.87990000     -32.67750000     -68.77580000
H      -43.68970000     -32.85990000     -67.72380000
H      -43.49160000     -31.67770000     -69.00110000
C      -44.26380000     -30.77500000     -71.78690000
H      -44.30830000     -29.73090000     -72.27270000
H      -43.67370000     -30.62110000     -70.86530000
C      -45.62030000     -31.31940000     -71.45340000
C      -46.66030000     -31.10200000     -72.31270000
C      -46.00550000     -32.16830000     -70.34440000
H      -46.54610000     -30.58580000     -73.29300000
C      -47.34490000     -32.55930000     -70.38830000
C      -45.34230000     -32.70830000     -69.17610000
C      -46.26300000     -33.31500000     -68.33780000
S      -48.16190000     -31.92780000     -71.79770000
S      -47.89520000     -33.46390000     -68.98740000
H      -46.09030000     -33.85570000     -67.40530000
