40
Properties=species:S:1:pos:R:3 #=T CELL(abcABC):=T 1.889726e+02=T 90.00000=T Traj:=T positionsangstrom=T Step:=T 0=T Bead:=T pbc="F F F"
C      -45.88980000     -36.09610000     -71.34910000
C      -44.50900000     -35.89960000     -71.25780000
C      -43.82060000     -35.26740000     -72.26810000
C      -44.48050000     -34.71030000     -73.33010000
C      -45.89720000     -34.87540000     -73.43490000
C      -46.56590000     -35.67160000     -72.49120000
H      -46.42580000     -36.60560000     -70.59850000
H      -42.73840000     -35.16380000     -72.25450000
H      -46.41660000     -34.59560000     -74.32090000
H      -47.66430000     -35.87080000     -72.50980000
C      -43.67310000     -34.02230000     -74.42050000
H      -44.09310000     -34.20210000     -75.42070000
H      -42.64880000     -34.45440000     -74.43500000
C      -43.67940000     -36.38420000     -70.11080000
H      -43.87200000     -37.38030000     -69.82440000
H      -42.58900000     -36.39690000     -70.27880000
S      -43.80670000     -32.20020000     -74.37130000
S      -43.87870000     -35.27060000     -68.61780000
C      -43.07490000     -31.77810000     -72.66620000
H      -42.77580000     -32.74580000     -72.11900000
H      -42.01910000     -31.28660000     -72.72770000
C      -43.29610000     -33.69900000     -69.43190000
H      -43.56140000     -33.70070000     -70.51770000
H      -42.20170000     -33.64150000     -69.28530000
C      -44.07260000     -32.48450000     -68.87720000
H      -43.97410000     -32.39670000     -67.80310000
H      -43.63040000     -31.58070000     -69.27580000
C      -44.05590000     -30.76190000     -72.08340000
H      -44.09090000     -29.91660000     -72.76030000
H      -43.56040000     -30.42570000     -71.07550000
C      -45.50950000     -31.29410000     -71.76170000
C      -46.48950000     -31.10120000     -72.69340000
C      -45.95790000     -31.96490000     -70.56990000
H      -46.34460000     -30.79260000     -73.73090000
C      -47.33730000     -32.22050000     -70.61990000
C      -45.51260000     -32.50460000     -69.27480000
C      -46.50380000     -33.16560000     -68.57490000
S      -48.06660000     -31.69880000     -72.13590000
S      -48.07330000     -33.09750000     -69.28350000
H      -46.31910000     -33.66280000     -67.63560000
