40
Properties=species:S:1:pos:R:3 #=T CELL(abcABC):=T 1.889726e+02=T 90.00000=T Traj:=T positionsangstrom=T Step:=T 0=T Bead:=T pbc="F F F"
C      -45.90090000     -35.64920000     -71.54190000
C      -44.54640000     -35.75580000     -71.54470000
C      -43.80980000     -35.20510000     -72.60930000
C      -44.44130000     -34.68800000     -73.72530000
C      -45.82380000     -34.89620000     -73.81380000
C      -46.54350000     -35.38440000     -72.75180000
H      -46.42400000     -36.07420000     -70.64810000
H      -42.65190000     -35.28940000     -72.68880000
H      -46.43610000     -34.59260000     -74.68770000
H      -47.60240000     -35.40600000     -72.73040000
C      -43.68270000     -33.80390000     -74.78350000
H      -44.08560000     -33.97510000     -75.78860000
H      -42.61580000     -33.94240000     -74.86710000
C      -43.78330000     -36.35560000     -70.34950000
H      -44.19190000     -37.35030000     -70.06610000
H      -42.75140000     -36.52040000     -70.61070000
S      -43.99710000     -32.00130000     -74.36000000
S      -43.70460000     -35.33170000     -68.80610000
C      -43.24040000     -31.72300000     -72.69510000
H      -43.13920000     -32.77440000     -72.27780000
H      -42.32490000     -31.20440000     -72.88340000
C      -43.08240000     -33.57440000     -69.25760000
H      -42.91940000     -33.60960000     -70.37450000
H      -42.06940000     -33.44540000     -68.83640000
C      -43.95580000     -32.49250000     -68.71670000
H      -43.87850000     -32.42630000     -67.63360000
H      -43.54860000     -31.49120000     -68.98530000
C      -44.18760000     -30.84100000     -71.85760000
H      -44.36670000     -29.95050000     -72.49700000
H      -43.75670000     -30.52180000     -70.92150000
C      -45.61540000     -31.36630000     -71.59440000
C      -46.70970000     -31.15340000     -72.41370000
C      -46.01480000     -32.09420000     -70.35100000
H      -46.56010000     -30.72740000     -73.42770000
C      -47.40360000     -32.38830000     -70.40570000
C      -45.38560000     -32.63050000     -69.17980000
C      -46.27150000     -33.25980000     -68.32440000
S      -48.17320000     -31.85000000     -71.86590000
S      -47.91040000     -33.37840000     -69.09060000
H      -46.00080000     -33.77650000     -67.40360000
