40
Properties=species:S:1:pos:R:3 #=T CELL(abcABC):=T 1.889726e+02=T 90.00000=T Traj:=T positionsangstrom=T Step:=T 0=T Bead:=T pbc="F F F"
C      -45.77560000     -36.08830000     -71.27210000
C      -44.34220000     -36.01340000     -71.24160000
C      -43.64100000     -35.45780000     -72.28370000
C      -44.35770000     -34.82170000     -73.34410000
C      -45.72530000     -34.84650000     -73.33880000
C      -46.45530000     -35.48110000     -72.31340000
H      -46.36980000     -36.58470000     -70.47280000
H      -42.60930000     -35.46270000     -72.20940000
H      -46.25170000     -34.37020000     -74.08890000
H      -47.52340000     -35.38940000     -72.38150000
C      -43.67840000     -34.14640000     -74.49730000
H      -44.08410000     -34.44220000     -75.46020000
H      -42.62780000     -34.36540000     -74.45350000
C      -43.73140000     -36.48880000     -69.95850000
H      -44.28380000     -37.36760000     -69.67610000
H      -42.60770000     -36.61280000     -70.05340000
S      -43.85990000     -32.25550000     -74.46860000
S      -44.07390000     -35.24800000     -68.59980000
C      -43.24260000     -32.00180000     -72.75240000
H      -43.43000000     -32.83400000     -72.17590000
H      -42.23110000     -31.72460000     -72.79160000
C      -43.26090000     -33.61930000     -69.14530000
H      -42.94610000     -33.63760000     -70.16180000
H      -42.30920000     -33.57080000     -68.58820000
C      -44.10730000     -32.38280000     -68.81650000
H      -44.09650000     -32.27430000     -67.67200000
H      -43.62920000     -31.44900000     -69.21510000
C      -44.01090000     -30.94950000     -71.94260000
H      -43.91840000     -29.95210000     -72.35170000
H      -43.47480000     -30.88360000     -71.01760000
C      -45.49540000     -31.31460000     -71.80200000
C      -46.40120000     -30.93340000     -72.70510000
C      -46.02750000     -32.05680000     -70.64690000
H      -46.23620000     -30.41220000     -73.61190000
C      -47.37020000     -32.34810000     -70.80590000
C      -45.54150000     -32.47640000     -69.29390000
C      -46.52330000     -32.92240000     -68.48820000
S      -48.00950000     -31.66200000     -72.31010000
S      -48.11780000     -32.94320000     -69.32750000
H      -46.39060000     -33.19060000     -67.49180000
