40
Properties=species:S:1:pos:R:3 #=T CELL(abcABC):=T 1.889726e+02=T 90.00000=T Traj:=T positionsangstrom=T Step:=T 0=T Bead:=T pbc="F F F"
C      -46.16930000     -35.68630000     -72.27170000
C      -44.77980000     -35.97650000     -72.23470000
C      -43.94690000     -35.19790000     -73.09640000
C      -44.50400000     -34.09320000     -73.80580000
C      -45.88390000     -33.81420000     -73.81340000
C      -46.71380000     -34.64060000     -73.00240000
H      -46.86570000     -36.25470000     -71.73200000
H      -42.91270000     -35.43880000     -73.22090000
H      -46.30810000     -32.92590000     -74.38710000
H      -47.82820000     -34.49040000     -73.13520000
C      -43.59420000     -33.08820000     -74.42600000
H      -43.75350000     -33.07920000     -75.47580000
H      -42.55890000     -33.50250000     -74.38750000
C      -44.17640000     -36.92430000     -71.27350000
H      -44.81180000     -37.88750000     -71.21510000
H      -43.16540000     -37.24070000     -71.51510000
S      -43.72540000     -31.45320000     -73.65870000
S      -43.94980000     -36.33560000     -69.55030000
C      -43.12280000     -31.75560000     -71.94500000
H      -43.34810000     -32.76940000     -71.64030000
H      -42.10690000     -31.61050000     -71.78370000
C      -43.25380000     -34.63280000     -69.84150000
H      -43.34530000     -34.39400000     -70.88680000
H      -42.14040000     -34.78840000     -69.68920000
C      -44.00800000     -33.68600000     -68.86400000
H      -43.95360000     -34.21160000     -67.87040000
H      -43.39770000     -32.73100000     -68.74350000
C      -43.82500000     -30.76100000     -70.92710000
H      -43.68630000     -29.74100000     -71.37090000
H      -43.29450000     -30.86300000     -69.94010000
C      -45.37740000     -31.01180000     -70.80730000
C      -46.34570000     -30.29400000     -71.43700000
C      -45.90270000     -32.10700000     -70.06720000
H      -46.21610000     -29.43740000     -72.01760000
C      -47.26730000     -32.28810000     -70.33350000
C      -45.41570000     -33.29370000     -69.36210000
C      -46.42790000     -34.14150000     -68.93730000
S      -47.93310000     -30.96340000     -71.23450000
S      -48.03860000     -33.65420000     -69.47820000
H      -46.27400000     -35.08390000     -68.39460000
