40
Properties=species:S:1:pos:R:3 #=T CELL(abcABC):=T 1.889726e+02=T 90.00000=T Traj:=T positionsangstrom=T Step:=T 0=T Bead:=T pbc="F F F"
C      -45.91350000     -35.72010000     -71.82430000
C      -44.53630000     -35.62730000     -71.81250000
C      -43.91590000     -34.86920000     -72.83510000
C      -44.68360000     -34.15000000     -73.79980000
C      -46.06050000     -34.16720000     -73.66510000
C      -46.69420000     -34.96570000     -72.66990000
H      -46.44150000     -36.33000000     -71.07610000
H      -42.77510000     -34.78820000     -72.92350000
H      -46.64640000     -33.70210000     -74.40490000
H      -47.75200000     -35.08540000     -72.54170000
C      -44.08920000     -33.25650000     -74.75660000
H      -44.83790000     -33.10210000     -75.57290000
H      -43.10710000     -33.66180000     -75.04360000
C      -43.63370000     -36.36290000     -70.89430000
H      -44.01280000     -37.42110000     -70.69880000
H      -42.61170000     -36.40480000     -71.33800000
S      -43.68900000     -31.50570000     -74.11620000
S      -43.64630000     -35.78310000     -69.07840000
C      -43.19870000     -31.69880000     -72.42530000
H      -43.17670000     -32.73680000     -72.14570000
H      -42.22810000     -31.33370000     -72.30690000
C      -43.06540000     -34.02980000     -69.39790000
H      -43.30420000     -33.79780000     -70.40790000
H      -41.97090000     -33.91040000     -69.21620000
C      -43.96920000     -33.06600000     -68.57940000
H      -44.04990000     -33.41380000     -67.49860000
H      -43.45200000     -32.02450000     -68.67730000
C      -44.20130000     -30.90610000     -71.38850000
H      -44.24980000     -29.86050000     -71.68650000
H      -43.53630000     -30.97460000     -70.53540000
C      -45.54070000     -31.47970000     -71.35840000
C      -46.54600000     -31.16010000     -72.26650000
C      -46.02990000     -32.32000000     -70.31570000
H      -46.46500000     -30.62400000     -73.19690000
C      -47.38810000     -32.59410000     -70.46210000
C      -45.42010000     -32.98580000     -69.09020000
C      -46.43140000     -33.63660000     -68.41570000
S      -48.06250000     -31.81850000     -71.82770000
S      -47.99470000     -33.54770000     -69.10450000
H      -46.24830000     -34.09440000     -67.42930000
