40
Properties=species:S:1:pos:R:3 #=T CELL(abcABC):=T 1.889726e+02=T 90.00000=T Traj:=T positionsangstrom=T Step:=T 0=T Bead:=T pbc="F F F"
C      -43.54870000     -36.76490000     -71.62480000
C      -44.52800000     -36.53650000     -70.67890000
C      -44.34780000     -35.65120000     -69.59700000
C      -43.11090000     -35.03740000     -69.49790000
C      -42.11520000     -35.29150000     -70.37450000
C      -42.34240000     -36.05630000     -71.51490000
H      -43.62850000     -37.54710000     -72.40730000
H      -45.08590000     -35.55540000     -68.79650000
H      -41.09170000     -34.82080000     -70.24160000
H      -41.46790000     -36.32890000     -72.05580000
C      -42.81050000     -34.27370000     -68.19980000
H      -41.79600000     -33.95810000     -68.33560000
H      -42.82700000     -35.02350000     -67.39530000
C      -45.80990000     -37.36530000     -70.83960000
H      -45.90690000     -37.86340000     -71.81940000
H      -45.81360000     -38.07300000     -70.03040000
S      -43.99540000     -32.86840000     -67.66000000
S      -47.35860000     -36.28850000     -70.68780000
C      -43.95680000     -31.73620000     -69.19640000
H      -44.21260000     -30.75980000     -68.85670000
H      -42.97940000     -31.75280000     -69.60960000
C      -46.91300000     -34.83650000     -71.75870000
H      -46.86920000     -35.12550000     -72.80650000
H      -45.86500000     -34.54500000     -71.38930000
C      -47.79020000     -33.62590000     -71.56910000
H      -48.83640000     -33.84830000     -71.71530000
H      -47.84100000     -33.16190000     -70.58650000
C      -45.05860000     -32.28860000     -70.20770000
H      -45.99980000     -32.43130000     -69.66650000
H      -44.69820000     -33.23230000     -70.51760000
C      -45.28890000     -31.43850000     -71.43730000
C      -44.35030000     -30.53430000     -71.86060000
C      -46.33540000     -31.60700000     -72.44170000
H      -43.54880000     -30.00260000     -71.29700000
C      -46.17990000     -30.83260000     -73.56940000
C      -47.48930000     -32.51370000     -72.57590000
C      -48.21000000     -32.24820000     -73.69770000
S      -44.75620000     -29.84300000     -73.43060000
S      -47.36830000     -31.11530000     -74.81370000
H      -49.15150000     -32.80390000     -74.07630000
