40
Properties=species:S:1:pos:R:3 #=T CELL(abcABC):=T 1.889726e+02=T 90.00000=T Traj:=T positionsangstrom=T Step:=T 0=T Bead:=T pbc="F F F"
C      -45.87890000     -35.84330000     -71.74350000
C      -44.46470000     -35.87050000     -71.79940000
C      -43.85680000     -35.04100000     -72.78800000
C      -44.60690000     -34.18490000     -73.54950000
C      -46.02160000     -34.28530000     -73.49180000
C      -46.67160000     -35.14220000     -72.60070000
H      -46.44890000     -36.51730000     -71.09980000
H      -42.75640000     -35.06780000     -72.68090000
H      -46.48220000     -33.57800000     -74.10920000
H      -47.72140000     -35.21330000     -72.51220000
C      -43.91820000     -33.28230000     -74.63190000
H      -44.50720000     -33.23490000     -75.54150000
H      -42.94200000     -33.72210000     -74.87360000
C      -43.58390000     -36.53000000     -70.80880000
H      -43.75240000     -37.54710000     -70.56110000
H      -42.57370000     -36.40730000     -71.13710000
S      -43.78950000     -31.53740000     -74.22510000
S      -43.73760000     -35.67410000     -69.19660000
C      -43.17490000     -31.52570000     -72.50410000
H      -42.85540000     -32.51120000     -72.04600000
H      -42.37710000     -30.76130000     -72.54180000
C      -43.11830000     -33.96720000     -69.47970000
H      -43.01950000     -33.64950000     -70.56840000
H      -42.11280000     -33.93660000     -69.03900000
C      -43.96320000     -32.86960000     -68.79060000
H      -43.92260000     -32.88990000     -67.73920000
H      -43.46910000     -31.95910000     -69.03040000
C      -44.18600000     -30.75990000     -71.53720000
H      -44.46790000     -29.87450000     -72.02340000
H      -43.82780000     -30.63510000     -70.46530000
C      -45.59610000     -31.38920000     -71.36940000
C      -46.58330000     -31.15190000     -72.31570000
C      -46.01330000     -32.26410000     -70.33890000
H      -46.65780000     -30.70070000     -73.27630000
C      -47.33580000     -32.60810000     -70.40260000
C      -45.41020000     -32.83300000     -69.14060000
C      -46.30950000     -33.53310000     -68.36860000
S      -48.08960000     -31.98430000     -71.86080000
S      -48.03830000     -33.45420000     -68.95240000
H      -46.06580000     -34.20320000     -67.54710000
