40
Properties=species:S:1:pos:R:3 #=T CELL(abcABC):=T 1.889726e+02=T 90.00000=T Traj:=T positionsangstrom=T Step:=T 0=T Bead:=T pbc="F F F"
C      -46.04990000     -35.57480000     -71.77070000
C      -44.64760000     -35.65060000     -71.92520000
C      -44.04070000     -34.88900000     -72.90990000
C      -44.72660000     -33.96920000     -73.65970000
C      -46.12410000     -34.00170000     -73.64040000
C      -46.76890000     -34.81530000     -72.64630000
H      -46.42600000     -36.06320000     -70.90870000
H      -42.97400000     -34.85650000     -73.11020000
H      -46.75890000     -33.42860000     -74.27730000
H      -47.86890000     -34.62480000     -72.68040000
C      -44.05760000     -33.00480000     -74.59690000
H      -44.65780000     -32.96390000     -75.54550000
H      -43.06910000     -33.43520000     -74.87100000
C      -43.78020000     -36.55440000     -71.02950000
H      -44.12170000     -37.52510000     -71.09840000
H      -42.77270000     -36.53100000     -71.31520000
S      -43.85470000     -31.31630000     -73.91430000
S      -43.91430000     -35.99460000     -69.29320000
C      -43.25530000     -31.67700000     -72.30680000
H      -43.43440000     -32.79380000     -72.17530000
H      -42.16850000     -31.59940000     -72.22800000
C      -43.17460000     -34.28190000     -69.41000000
H      -43.13040000     -34.01180000     -70.48400000
H      -42.19760000     -34.27480000     -68.92710000
C      -44.04530000     -33.33980000     -68.61520000
H      -44.06900000     -33.70100000     -67.57670000
H      -43.56850000     -32.35840000     -68.55850000
C      -43.88220000     -30.85080000     -71.10100000
H      -43.89820000     -29.78780000     -71.21430000
H      -43.41160000     -30.97420000     -70.10710000
C      -45.32180000     -31.33860000     -71.03340000
C      -46.23440000     -30.81820000     -71.86690000
C      -45.88680000     -32.33060000     -70.14500000
H      -46.00660000     -29.97450000     -72.41770000
C      -47.19390000     -32.53990000     -70.46310000
C      -45.42100000     -33.19750000     -69.13630000
C      -46.40230000     -34.06220000     -68.63080000
S      -47.77040000     -31.51170000     -71.80000000
S      -47.96400000     -33.85420000     -69.56090000
H      -46.43400000     -34.85980000     -67.90730000
