40
Properties=species:S:1:pos:R:3 #=T CELL(abcABC):=T 1.889726e+02=T 90.00000=T Traj:=T positionsangstrom=T Step:=T 0=T Bead:=T pbc="F F F"
C      -46.04820000     -35.64760000     -71.86830000
C      -44.61750000     -35.66580000     -71.96310000
C      -44.07480000     -34.80560000     -72.90160000
C      -44.86920000     -34.05710000     -73.77270000
C      -46.26690000     -33.94460000     -73.54760000
C      -46.85230000     -34.83140000     -72.64950000
H      -46.53950000     -36.35420000     -71.23950000
H      -43.07170000     -34.76140000     -73.03660000
H      -46.88060000     -33.23450000     -74.17020000
H      -47.98050000     -34.83440000     -72.64050000
C      -44.18860000     -33.14080000     -74.68570000
H      -44.77940000     -32.81870000     -75.53050000
H      -43.18630000     -33.45320000     -74.92490000
C      -43.76470000     -36.50480000     -71.02000000
H      -44.17720000     -37.57690000     -70.95150000
H      -42.65280000     -36.52410000     -71.34270000
S      -43.83140000     -31.44460000     -73.99330000
S      -43.73530000     -35.88310000     -69.19910000
C      -43.04220000     -31.62620000     -72.30830000
H      -42.87420000     -32.63940000     -72.11340000
H      -42.12180000     -31.11940000     -72.42500000
C      -43.11990000     -34.14540000     -69.21760000
H      -43.06670000     -33.88850000     -70.31470000
H      -42.09500000     -33.98950000     -68.88520000
C      -44.02460000     -33.18490000     -68.45570000
H      -44.04260000     -33.52970000     -67.38470000
H      -43.56180000     -32.20170000     -68.42100000
C      -43.90430000     -30.97560000     -71.20620000
H      -43.77340000     -29.90400000     -71.48540000
H      -43.46860000     -31.28470000     -70.22230000
C      -45.34240000     -31.36220000     -71.21830000
C      -46.33650000     -30.81830000     -71.98200000
C      -45.88630000     -32.36810000     -70.27540000
H      -46.02800000     -30.13440000     -72.75910000
C      -47.28270000     -32.59680000     -70.52270000
C      -45.38940000     -33.09650000     -69.06950000
C      -46.42540000     -33.95980000     -68.59840000
S      -47.89730000     -31.64480000     -71.79550000
S      -47.89330000     -33.79000000     -69.42940000
H      -46.27700000     -34.74600000     -67.88870000
