40
Properties=species:S:1:pos:R:3 #=T CELL(abcABC):=T 1.889726e+02=T 90.00000=T Traj:=T positionsangstrom=T Step:=T 0=T Bead:=T pbc="F F F"
C      -46.14380000     -35.34610000     -72.29870000
C      -44.78890000     -35.41800000     -72.67950000
C      -44.18270000     -34.39350000     -73.43600000
C      -44.98180000     -33.31060000     -73.91260000
C      -46.39690000     -33.30670000     -73.55940000
C      -46.95310000     -34.38360000     -72.86850000
H      -46.45330000     -36.13820000     -71.66530000
H      -43.17340000     -34.33960000     -73.63270000
H      -46.91940000     -32.50980000     -74.03450000
H      -48.04590000     -34.40130000     -72.68820000
C      -44.27680000     -32.18630000     -74.64900000
H      -44.86590000     -31.65220000     -75.40630000
H      -43.37400000     -32.57450000     -75.10480000
C      -44.04220000     -36.55590000     -72.14590000
H      -44.46620000     -37.52700000     -72.55390000
H      -42.97620000     -36.39470000     -72.53860000
S      -43.75820000     -30.78800000     -73.47530000
S      -43.95350000     -36.79620000     -70.31970000
C      -43.00580000     -31.72550000     -72.00870000
H      -43.43860000     -32.76510000     -72.17940000
H      -41.85020000     -31.75310000     -72.12060000
C      -43.23880000     -35.13340000     -70.03020000
H      -43.14600000     -34.55310000     -70.94650000
H      -42.22430000     -35.35770000     -69.67020000
C      -43.92750000     -34.33540000     -68.90680000
H      -43.87640000     -34.95330000     -67.98610000
H      -43.33280000     -33.40600000     -68.86060000
C      -43.55330000     -31.25450000     -70.64740000
H      -43.41450000     -30.20520000     -70.43130000
H      -42.99390000     -31.75540000     -69.96040000
C      -45.08910000     -31.49230000     -70.49180000
C      -46.02160000     -30.58370000     -70.90040000
C      -45.73250000     -32.67470000     -69.97110000
H      -45.63180000     -29.68390000     -71.39490000
C      -47.12110000     -32.58600000     -70.12670000
C      -45.38370000     -33.84700000     -69.23010000
C      -46.45070000     -34.55020000     -68.70900000
S      -47.68510000     -31.09410000     -70.72320000
S      -48.01510000     -33.87500000     -69.29590000
H      -46.39250000     -35.49180000     -68.14620000
