40
Properties=species:S:1:pos:R:3 #=T CELL(abcABC):=T 1.889726e+02=T 90.00000=T Traj:=T positionsangstrom=T Step:=T 0=T Bead:=T pbc="F F F"
C      -46.35820000     -35.50750000     -72.19780000
C      -45.00660000     -35.76120000     -72.46310000
C      -44.27740000     -34.79450000     -73.15890000
C      -44.92050000     -33.64770000     -73.74680000
C      -46.31110000     -33.50970000     -73.54660000
C      -47.03870000     -34.45990000     -72.83380000
H      -46.96430000     -36.17300000     -71.61200000
H      -43.21510000     -34.95260000     -73.25630000
H      -46.76100000     -32.60040000     -74.10000000
H      -48.09950000     -34.37450000     -72.62130000
C      -44.07460000     -32.60500000     -74.50220000
H      -44.65880000     -32.19550000     -75.35110000
H      -43.11330000     -32.91680000     -74.92140000
C      -44.28890000     -36.91920000     -71.83690000
H      -44.91480000     -37.79640000     -71.85020000
H      -43.35960000     -37.15140000     -72.37110000
S      -43.60050000     -31.08470000     -73.52730000
S      -43.87480000     -36.61580000     -70.05860000
C      -42.92980000     -31.68970000     -71.88650000
H      -43.05590000     -32.80050000     -71.94930000
H      -41.88730000     -31.44330000     -71.76950000
C      -43.29850000     -34.87890000     -69.90620000
H      -43.46900000     -34.37810000     -70.84060000
H      -42.21000000     -34.88410000     -69.72020000
C      -44.00730000     -34.09500000     -68.80060000
H      -44.28410000     -34.59710000     -67.84250000
H      -43.36930000     -33.20650000     -68.58050000
C      -43.60470000     -31.12880000     -70.62170000
H      -43.47310000     -30.04480000     -70.50580000
H      -43.21230000     -31.57070000     -69.73090000
C      -45.04000000     -31.32270000     -70.60200000
C      -45.87920000     -30.42290000     -71.15400000
C      -45.75130000     -32.49510000     -70.04550000
H      -45.77200000     -29.55330000     -71.67580000
C      -47.11780000     -32.38310000     -70.23460000
C      -45.41100000     -33.69270000     -69.26140000
C      -46.56500000     -34.35530000     -68.85570000
S      -47.62540000     -30.95720000     -71.11970000
S      -48.02860000     -33.66330000     -69.52660000
H      -46.71520000     -35.23700000     -68.25750000
