40
Properties=species:S:1:pos:R:3 #=T CELL(abcABC):=T 1.889726e+02=T 90.00000=T Traj:=T positionsangstrom=T Step:=T 0=T Bead:=T pbc="F F F"
C      -46.21050000     -35.34800000     -72.92640000
C      -44.80970000     -35.26950000     -72.98630000
C      -44.20340000     -34.16420000     -73.53130000
C      -44.91880000     -33.05990000     -73.97750000
C      -46.31440000     -33.20530000     -74.05280000
C      -46.99050000     -34.33060000     -73.51530000
H      -46.63920000     -36.22790000     -72.31180000
H      -43.08830000     -34.11960000     -73.62620000
H      -47.02020000     -32.37920000     -74.32020000
H      -48.07430000     -34.32400000     -73.35420000
C      -44.14700000     -31.81290000     -74.50610000
H      -44.80250000     -31.27280000     -75.19920000
H      -43.17630000     -32.10550000     -74.96360000
C      -44.03380000     -36.51470000     -72.46410000
H      -44.55140000     -37.40960000     -72.81440000
H      -43.02770000     -36.50100000     -72.79400000
S      -43.85590000     -30.50090000     -73.16420000
S      -43.79260000     -36.63340000     -70.66180000
C      -43.09100000     -31.32990000     -71.71840000
H      -42.98820000     -32.35440000     -72.00120000
H      -42.10910000     -30.94840000     -71.50730000
C      -43.13850000     -34.96860000     -70.30430000
H      -43.34130000     -34.31710000     -71.14020000
H      -42.03240000     -35.02800000     -70.25740000
C      -43.64490000     -34.30950000     -69.06650000
H      -43.33560000     -34.84020000     -68.17900000
H      -43.18020000     -33.34080000     -69.00020000
C      -43.91330000     -31.04980000     -70.34890000
H      -43.97360000     -29.98080000     -70.29580000
H      -43.34080000     -31.29190000     -69.47640000
C      -45.28870000     -31.57180000     -70.23140000
C      -46.33420000     -30.80510000     -70.69150000
C      -45.73780000     -32.78140000     -69.71160000
H      -46.33470000     -29.80390000     -71.07560000
C      -47.12660000     -32.89270000     -69.79500000
C      -45.15830000     -34.00390000     -69.12210000
C      -46.19160000     -34.82840000     -68.68450000
S      -47.99100000     -31.52970000     -70.51830000
S      -47.77110000     -34.31230000     -69.03540000
H      -46.04690000     -35.73610000     -68.16830000
