40
Properties=species:S:1:pos:R:3 #=T CELL(abcABC):=T 1.889726e+02=T 90.00000=T Traj:=T positionsangstrom=T Step:=T 0=T Bead:=T pbc="F F F"
C      -46.23690000     -35.43720000     -72.81370000
C      -44.89270000     -35.36190000     -72.87350000
C      -44.20780000     -34.30020000     -73.49940000
C      -44.89730000     -33.17340000     -73.86370000
C      -46.30020000     -33.16470000     -73.75610000
C      -46.98940000     -34.28900000     -73.20830000
H      -46.85920000     -36.27750000     -72.49060000
H      -43.09500000     -34.44120000     -73.49180000
H      -46.86960000     -32.35100000     -74.21610000
H      -48.02810000     -34.41520000     -73.38820000
C      -44.22680000     -31.95580000     -74.48110000
H      -44.94990000     -31.57190000     -75.20430000
H      -43.24500000     -32.21100000     -74.85080000
C      -44.04170000     -36.49440000     -72.41190000
H      -44.53470000     -37.44970000     -72.72710000
H      -42.99160000     -36.38340000     -72.86300000
S      -43.85100000     -30.61170000     -73.32100000
S      -43.83090000     -36.60680000     -70.59170000
C      -43.14570000     -31.54550000     -71.90220000
H      -43.46960000     -32.58190000     -72.11580000
H      -42.00300000     -31.45100000     -71.95140000
C      -43.21370000     -34.88950000     -70.07580000
H      -43.40430000     -34.22090000     -70.90770000
H      -42.12320000     -34.96760000     -70.03000000
C      -43.86260000     -34.37510000     -68.78360000
H      -43.80910000     -35.21380000     -68.02170000
H      -43.23190000     -33.61820000     -68.27440000
C      -43.70630000     -31.14480000     -70.47940000
H      -43.64430000     -30.10060000     -70.31660000
H      -42.99340000     -31.68860000     -69.78420000
C      -45.15040000     -31.54340000     -70.29190000
C      -46.11440000     -30.72750000     -70.79210000
C      -45.77460000     -32.77870000     -69.79840000
H      -45.98720000     -29.68240000     -71.13460000
C      -47.15150000     -32.78330000     -69.95940000
C      -45.29160000     -33.95030000     -69.00910000
C      -46.28680000     -34.79030000     -68.60660000
S      -47.78970000     -31.30360000     -70.67020000
S      -47.84210000     -34.20780000     -69.19940000
H      -46.08020000     -35.72540000     -68.16040000
