40
Properties=species:S:1:pos:R:3 #=T CELL(abcABC):=T 1.889726e+02=T 90.00000=T Traj:=T positionsangstrom=T Step:=T 0=T Bead:=T pbc="F F F"
C      -46.30020000     -35.53170000     -72.27760000
C      -44.96270000     -35.69310000     -72.54300000
C      -44.28810000     -34.66740000     -73.28820000
C      -44.91500000     -33.47690000     -73.70140000
C      -46.27270000     -33.33480000     -73.37990000
C      -46.95870000     -34.31550000     -72.67520000
H      -46.80950000     -36.41130000     -71.78550000
H      -43.19970000     -34.91990000     -73.62920000
H      -46.81840000     -32.35120000     -73.70640000
H      -48.03700000     -34.10550000     -72.44780000
C      -44.14100000     -32.45190000     -74.48940000
H      -44.81870000     -32.08630000     -75.26890000
H      -43.42070000     -32.94660000     -75.11550000
C      -44.08310000     -36.78070000     -71.99590000
H      -44.52110000     -37.77720000     -72.21670000
H      -42.99930000     -36.72260000     -72.39530000
S      -43.55110000     -31.04270000     -73.44350000
S      -43.91100000     -36.62700000     -70.13470000
C      -42.92540000     -31.73800000     -71.89020000
H      -43.02190000     -32.84330000     -72.06630000
H      -41.78840000     -31.66830000     -71.83290000
C      -43.23720000     -34.89740000     -70.02040000
H      -43.35180000     -34.30310000     -70.95500000
H      -42.17960000     -34.87560000     -69.86210000
C      -44.01530000     -34.07550000     -68.91040000
H      -43.98430000     -34.63550000     -67.98760000
H      -43.50520000     -33.14360000     -68.69070000
C      -43.64740000     -31.19640000     -70.71810000
H      -43.42520000     -30.15390000     -70.77170000
H      -43.17120000     -31.58130000     -69.79960000
C      -45.12950000     -31.42520000     -70.61700000
C      -45.98390000     -30.59720000     -71.24370000
C      -45.83210000     -32.53930000     -69.97130000
H      -45.82080000     -29.70790000     -71.74870000
C      -47.23840000     -32.38770000     -70.07970000
C      -45.42230000     -33.77880000     -69.35070000
C      -46.47990000     -34.56390000     -69.00330000
S      -47.67650000     -30.92120000     -70.92700000
S      -48.04450000     -33.81580000     -69.48220000
H      -46.51530000     -35.50540000     -68.49530000
