40
Properties=species:S:1:pos:R:3 #=T CELL(abcABC):=T 1.889726e+02=T 90.00000=T Traj:=T positionsangstrom=T Step:=T 0=T Bead:=T pbc="F F F"
C      -46.19660000     -35.29420000     -73.26620000
C      -44.74120000     -35.31090000     -73.22940000
C      -44.07160000     -34.15020000     -73.52890000
C      -44.72540000     -33.03120000     -74.02990000
C      -46.11950000     -32.95370000     -73.93750000
C      -46.83570000     -34.10000000     -73.69120000
H      -46.75220000     -36.28720000     -73.16220000
H      -43.00070000     -34.19110000     -73.47020000
H      -46.56810000     -32.00070000     -74.16180000
H      -47.93230000     -33.96120000     -73.79560000
C      -43.93400000     -31.81520000     -74.24410000
H      -44.02660000     -31.32350000     -75.22480000
H      -42.89240000     -32.10790000     -74.31690000
C      -44.06140000     -36.49360000     -72.63510000
H      -44.63640000     -37.45940000     -72.73870000
H      -43.11480000     -36.77620000     -73.21920000
S      -44.19150000     -30.52830000     -72.99320000
S      -43.79390000     -36.41050000     -70.77550000
C      -43.29590000     -31.36570000     -71.59360000
H      -43.32250000     -32.46390000     -71.78430000
H      -42.27990000     -31.00910000     -71.50500000
C      -42.92960000     -34.84940000     -70.39530000
H      -43.05870000     -34.25840000     -71.29110000
H      -41.89100000     -35.09320000     -70.11670000
C      -43.55710000     -34.21740000     -69.10770000
H      -43.41010000     -35.02280000     -68.39150000
H      -42.90220000     -33.36170000     -68.85260000
C      -44.03070000     -31.02800000     -70.35060000
H      -44.07980000     -29.86790000     -70.23170000
H      -43.46620000     -31.49030000     -69.51130000
C      -45.41690000     -31.57730000     -70.25600000
C      -46.55220000     -30.87400000     -70.65530000
C      -45.81010000     -32.83190000     -69.71090000
H      -46.70080000     -29.89570000     -71.01960000
C      -47.23660000     -32.97380000     -69.67530000
C      -45.05650000     -34.02770000     -69.22160000
C      -45.92570000     -35.07520000     -68.76860000
S      -48.10710000     -31.64830000     -70.37440000
S      -47.64540000     -34.47310000     -68.96960000
H      -45.62500000     -36.03920000     -68.28560000
