40
Properties=species:S:1:pos:R:3 #=T CELL(abcABC):=T 1.889726e+02=T 90.00000=T Traj:=T positionsangstrom=T Step:=T 0=T Bead:=T pbc="F F F"
C      -45.48620000     -35.15920000     -73.55510000
C      -44.11190000     -34.97160000     -73.42760000
C      -43.57840000     -33.72840000     -73.76870000
C      -44.45710000     -32.67440000     -74.20900000
C      -45.84840000     -32.94220000     -74.33920000
C      -46.35890000     -34.18540000     -74.00410000
H      -45.88440000     -36.11190000     -73.13360000
H      -42.52220000     -33.62150000     -73.68680000
H      -46.52640000     -32.06810000     -74.54750000
H      -47.42360000     -34.44330000     -74.22740000
C      -43.87780000     -31.29680000     -74.31510000
H      -44.42210000     -30.81500000     -75.13080000
H      -42.85060000     -31.27530000     -74.60110000
C      -43.22820000     -36.14460000     -72.95760000
H      -43.66640000     -37.02950000     -73.38550000
H      -42.22170000     -35.87810000     -73.20500000
S      -44.25840000     -30.20650000     -72.84200000
S      -43.45390000     -36.33950000     -71.12490000
C      -43.87720000     -31.30110000     -71.36380000
H      -44.23020000     -32.27810000     -71.71830000
H      -42.86180000     -31.40010000     -71.11090000
C      -42.96560000     -34.66990000     -70.47940000
H      -43.04550000     -33.90250000     -71.25460000
H      -41.87430000     -34.72000000     -70.24720000
C      -43.73640000     -34.24560000     -69.10990000
H      -43.36370000     -34.97920000     -68.43640000
H      -43.26000000     -33.30710000     -68.80990000
C      -44.59750000     -30.86150000     -70.07800000
H      -44.67670000     -29.76620000     -69.94450000
H      -43.91970000     -31.16970000     -69.25480000
C      -45.86590000     -31.59220000     -69.86210000
C      -47.11140000     -30.98340000     -70.04460000
C      -46.08170000     -33.03840000     -69.63130000
H      -47.23240000     -29.92410000     -70.12590000
C      -47.44960000     -33.37160000     -69.53860000
C      -45.24740000     -34.22560000     -69.25470000
C      -46.03340000     -35.33080000     -68.93120000
S      -48.47610000     -32.03130000     -69.92440000
S      -47.76960000     -35.06580000     -68.99450000
H      -45.63280000     -36.23360000     -68.65080000
