40
Properties=species:S:1:pos:R:3 #=T CELL(abcABC):=T 1.889726e+02=T 90.00000=T Traj:=T positionsangstrom=T Step:=T 0=T Bead:=T pbc="F F F"
C      -45.89790000     -35.19050000     -73.40080000
C      -44.49660000     -35.22300000     -73.38370000
C      -43.82510000     -34.00560000     -73.63160000
C      -44.55840000     -32.90030000     -74.09060000
C      -45.92650000     -32.93010000     -74.22520000
C      -46.58240000     -34.09970000     -73.86720000
H      -46.51050000     -36.03500000     -73.22320000
H      -42.72150000     -33.99970000     -73.63320000
H      -46.41090000     -32.07940000     -74.63780000
H      -47.65110000     -34.10150000     -73.87240000
C      -43.83480000     -31.55420000     -74.28520000
H      -44.15130000     -31.11550000     -75.22310000
H      -42.77680000     -31.70130000     -74.29240000
C      -43.77100000     -36.40140000     -72.84510000
H      -44.12000000     -37.37550000     -73.25110000
H      -42.64780000     -36.40110000     -73.06320000
S      -44.22010000     -30.31180000     -72.91260000
S      -43.92930000     -36.45690000     -71.01780000
C      -43.42110000     -30.96060000     -71.33410000
H      -43.27150000     -32.00120000     -71.47950000
H      -42.45780000     -30.51970000     -71.13050000
C      -43.13920000     -34.83080000     -70.56190000
H      -43.42310000     -34.15390000     -71.40270000
H      -42.05790000     -34.97580000     -70.63490000
C      -43.53740000     -34.18250000     -69.31070000
H      -43.16750000     -34.82650000     -68.49510000
H      -43.03660000     -33.21650000     -69.23810000
C      -44.35870000     -30.75810000     -70.08080000
H      -44.63330000     -29.71340000     -70.06040000
H      -43.85320000     -30.86690000     -69.05680000
C      -45.68360000     -31.51200000     -70.07070000
C      -46.91800000     -30.96930000     -70.35440000
C      -45.87330000     -32.90220000     -69.56820000
H      -46.98950000     -29.98780000     -70.84180000
C      -47.22290000     -33.18340000     -69.43550000
C      -45.04370000     -34.04540000     -69.19580000
C      -45.75760000     -35.16020000     -68.80110000
S      -48.29640000     -31.98170000     -70.03760000
S      -47.54490000     -34.85050000     -69.06160000
H      -45.46680000     -36.16320000     -68.45170000
