40
Properties=species:S:1:pos:R:3 #=T CELL(abcABC):=T 1.889726e+02=T 90.00000=T Traj:=T positionsangstrom=T Step:=T 0=T Bead:=T pbc="F F F"
C      -46.00570000     -32.66210000     -68.13680000
C      -45.79500000     -34.00380000     -68.21120000
C      -44.54760000     -34.54570000     -68.66490000
C      -43.48780000     -33.65170000     -68.97560000
C      -43.75700000     -32.24830000     -68.99950000
C      -44.99800000     -31.77420000     -68.54630000
H      -46.90230000     -32.24070000     -67.77350000
H      -44.42230000     -35.63810000     -68.65080000
H      -42.94320000     -31.57720000     -69.09800000
H      -45.12590000     -30.64290000     -68.50450000
C      -42.16970000     -34.17980000     -69.25290000
H      -41.99010000     -35.25250000     -69.12880000
H      -41.36470000     -33.79450000     -68.64770000
C      -46.83250000     -34.93680000     -67.82390000
H      -46.37510000     -35.76480000     -67.35370000
H      -47.64400000     -34.48540000     -67.22620000
S      -41.60490000     -33.87960000     -71.05850000
S      -47.57940000     -35.69850000     -69.34440000
C      -42.80160000     -35.06260000     -72.05490000
H      -42.31920000     -34.98810000     -73.02230000
H      -42.69380000     -36.05490000     -71.56690000
C      -47.98730000     -34.31820000     -70.47170000
H      -47.46220000     -33.40160000     -70.11470000
H      -48.98040000     -34.05840000     -70.56040000
C      -47.49320000     -34.63970000     -71.87590000
H      -46.56250000     -35.24980000     -71.75360000
H      -48.14740000     -35.31680000     -72.33940000
C      -44.24930000     -34.68850000     -72.16070000
H      -44.68710000     -34.63930000     -71.14610000
H      -44.77490000     -35.52630000     -72.51540000
C      -44.49310000     -33.44870000     -72.93480000
C      -43.65420000     -32.49180000     -73.46970000
C      -45.84010000     -32.98180000     -73.16920000
H      -42.59600000     -32.62710000     -73.56260000
C      -45.94370000     -31.80090000     -73.92690000
C      -47.15380000     -33.49030000     -72.81260000
C      -48.18680000     -32.74870000     -73.31850000
S      -44.41420000     -31.12370000     -74.28360000
S      -47.72110000     -31.36050000     -74.26910000
H      -49.21940000     -32.78900000     -72.99230000
