40
Properties=species:S:1:pos:R:3 #=T CELL(abcABC):=T 1.889726e+02=T 90.00000=T Traj:=T positionsangstrom=T Step:=T 0=T Bead:=T pbc="F F F"
C      -45.85700000     -32.66040000     -67.86490000
C      -45.74970000     -34.05890000     -68.21430000
C      -44.59840000     -34.54960000     -68.74940000
C      -43.43460000     -33.78390000     -68.84160000
C      -43.59150000     -32.37470000     -68.65480000
C      -44.78100000     -31.84220000     -68.11760000
H      -46.80030000     -32.21660000     -67.41610000
H      -44.62880000     -35.60750000     -68.94850000
H      -42.82720000     -31.65630000     -68.86570000
H      -44.87050000     -30.76540000     -67.94360000
C      -42.12420000     -34.29560000     -69.36760000
H      -42.04090000     -35.37210000     -69.36600000
H      -41.26200000     -33.88690000     -68.77260000
C      -46.87600000     -35.02740000     -67.86780000
H      -46.53770000     -35.93890000     -67.33910000
H      -47.68040000     -34.57340000     -67.34130000
S      -41.77290000     -33.72450000     -71.04910000
S      -47.66500000     -35.61940000     -69.46080000
C      -42.76560000     -34.96310000     -71.96300000
H      -42.32210000     -34.96500000     -72.94600000
H      -42.52950000     -35.93160000     -71.56860000
C      -47.58460000     -34.23660000     -70.62190000
H      -46.67590000     -33.79490000     -70.37410000
H      -48.40810000     -33.53570000     -70.51410000
C      -47.61470000     -34.69980000     -72.14370000
H      -46.98530000     -35.52130000     -72.22540000
H      -48.61330000     -35.06130000     -72.52020000
C      -44.25790000     -34.72030000     -72.09910000
H      -44.67640000     -34.52820000     -71.11950000
H      -44.64660000     -35.63520000     -72.53470000
C      -44.64410000     -33.50960000     -72.86580000
C      -43.76500000     -32.71510000     -73.51720000
C      -45.95920000     -33.03670000     -73.17580000
H      -42.74000000     -32.72580000     -73.46120000
C      -45.97640000     -31.85430000     -73.93960000
C      -47.27250000     -33.48200000     -72.98000000
C      -48.23080000     -32.65980000     -73.50270000
S      -44.41420000     -31.19760000     -74.25150000
S      -47.60620000     -31.20580000     -74.28660000
H      -49.28680000     -32.86540000     -73.56390000
