40
Properties=species:S:1:pos:R:3 #=T CELL(abcABC):=T 1.889726e+02=T 90.00000=T Traj:=T positionsangstrom=T Step:=T 0=T Bead:=T pbc="F F F"
C      -45.25060000     -34.89800000     -73.18500000
C      -43.97100000     -34.35180000     -73.05840000
C      -43.80720000     -32.99150000     -73.33340000
C      -44.84610000     -32.09160000     -73.41090000
C      -46.12350000     -32.67350000     -73.62840000
C      -46.28460000     -34.01000000     -73.45710000
H      -45.28320000     -35.93160000     -73.13530000
H      -42.84610000     -32.55540000     -73.14250000
H      -46.94970000     -31.96870000     -73.40090000
H      -47.21990000     -34.48500000     -73.68450000
C      -44.53850000     -30.62190000     -73.46040000
H      -44.97630000     -30.15260000     -74.35280000
H      -43.41610000     -30.58770000     -73.57700000
C      -42.78390000     -35.30480000     -72.81890000
H      -42.98450000     -36.24360000     -73.33920000
H      -41.89870000     -34.76420000     -73.20270000
S      -44.99400000     -29.66330000     -71.95630000
S      -42.54540000     -35.80990000     -71.06730000
C      -44.25530000     -30.67330000     -70.58600000
H      -43.76480000     -31.59660000     -71.03400000
H      -43.35800000     -30.20190000     -70.09890000
C      -42.58820000     -34.17170000     -70.22680000
H      -42.70780000     -33.37880000     -70.87810000
H      -41.65960000     -34.11180000     -69.68370000
C      -43.72900000     -34.32480000     -69.24250000
H      -43.40110000     -35.21570000     -68.64310000
H      -43.77080000     -33.51950000     -68.56830000
C      -45.12820000     -31.20670000     -69.39590000
H      -45.48970000     -30.21910000     -68.93670000
H      -44.45430000     -31.70970000     -68.64340000
C      -46.23550000     -32.16510000     -69.87390000
C      -47.51580000     -31.68650000     -70.16900000
C      -46.14490000     -33.59120000     -70.01430000
H      -47.81290000     -30.62160000     -70.02000000
C      -47.37590000     -34.17090000     -70.44310000
C      -45.11200000     -34.59310000     -69.74930000
C      -45.59520000     -35.81090000     -70.02520000
S      -48.59520000     -32.93330000     -70.61060000
S      -47.26560000     -35.91200000     -70.52810000
H      -45.01580000     -36.67820000     -69.78330000
