40
Properties=species:S:1:pos:R:3 #=T CELL(abcABC):=T 1.889726e+02=T 90.00000=T Traj:=T positionsangstrom=T Step:=T 0=T Bead:=T pbc="F F F"
C      -45.90000000     -32.77710000     -68.02680000
C      -45.65530000     -34.14360000     -68.13080000
C      -44.38950000     -34.58990000     -68.54320000
C      -43.40750000     -33.63290000     -68.89100000
C      -43.74190000     -32.26410000     -68.99480000
C      -44.98270000     -31.85540000     -68.50550000
H      -46.87830000     -32.50120000     -67.61430000
H      -44.11910000     -35.63800000     -68.49230000
H      -42.96860000     -31.48400000     -69.35950000
H      -45.23330000     -30.80920000     -68.50970000
C      -42.02900000     -34.11220000     -69.31550000
H      -41.89600000     -35.21720000     -69.11660000
H      -41.22410000     -33.71020000     -68.75050000
C      -46.80750000     -35.13280000     -67.81830000
H      -46.50440000     -36.05750000     -67.35270000
H      -47.55610000     -34.60370000     -67.20810000
S      -41.57600000     -33.73170000     -71.07380000
S      -47.50360000     -35.76390000     -69.44230000
C      -42.59940000     -34.82920000     -71.98000000
H      -42.24950000     -34.91730000     -72.98650000
H      -42.44670000     -35.87720000     -71.62060000
C      -47.46450000     -34.32260000     -70.64300000
H      -46.56600000     -33.71170000     -70.43560000
H      -48.36580000     -33.70240000     -70.41160000
C      -47.63150000     -34.77100000     -72.08580000
H      -46.91060000     -35.54480000     -72.40140000
H      -48.62170000     -35.15830000     -72.41300000
C      -44.13790000     -34.59350000     -72.10380000
H      -44.69750000     -34.64650000     -71.17290000
H      -44.49860000     -35.40310000     -72.77250000
C      -44.63350000     -33.34220000     -72.85320000
C      -43.78670000     -32.33810000     -73.30810000
C      -46.02230000     -32.99430000     -73.16200000
H      -42.69510000     -32.31110000     -73.26040000
C      -46.16380000     -31.81810000     -73.91000000
C      -47.30070000     -33.49810000     -72.86360000
C      -48.34480000     -32.80030000     -73.38600000
S      -44.63270000     -31.14970000     -74.22980000
S      -47.80070000     -31.36050000     -74.28360000
H      -49.36810000     -32.86160000     -73.11590000
