40
Properties=species:S:1:pos:R:3 #=T CELL(abcABC):=T 1.889726e+02=T 90.00000=T Traj:=T positionsangstrom=T Step:=T 0=T Bead:=T pbc="F F F"
C      -44.22870000     -34.13590000     -73.52600000
C      -43.32810000     -33.16780000     -73.01670000
C      -43.86770000     -31.86090000     -72.96500000
C      -45.17220000     -31.49770000     -73.32400000
C      -45.99470000     -32.54210000     -73.74120000
C      -45.60230000     -33.90930000     -73.74430000
H      -43.87140000     -35.17540000     -73.57510000
H      -43.10990000     -31.16670000     -72.64600000
H      -46.93140000     -32.33930000     -74.25880000
H      -46.16020000     -34.75360000     -73.89280000
C      -45.64210000     -30.03480000     -73.18400000
H      -46.11140000     -29.73870000     -74.09500000
H      -44.80630000     -29.41020000     -72.91040000
C      -41.96900000     -33.52040000     -72.64950000
H      -41.46070000     -34.16450000     -73.44740000
H      -41.36980000     -32.56110000     -72.51440000
S      -46.83760000     -29.99990000     -71.78280000
S      -41.78610000     -34.41860000     -70.99760000
C      -45.71830000     -30.68450000     -70.40510000
H      -44.97270000     -31.11750000     -71.02260000
H      -45.17660000     -29.92840000     -69.88180000
C      -42.84430000     -33.21660000     -69.98580000
H      -43.52630000     -32.64880000     -70.60700000
H      -42.24020000     -32.52750000     -69.41240000
C      -43.73430000     -33.85450000     -68.92430000
H      -43.17970000     -34.49200000     -68.25430000
H      -44.05720000     -33.01570000     -68.30080000
C      -46.43840000     -31.62430000     -69.45180000
H      -47.36660000     -31.12760000     -69.26270000
H      -45.82970000     -31.71930000     -68.50440000
C      -46.75430000     -32.95230000     -70.08560000
C      -48.04820000     -33.04590000     -70.60700000
C      -46.01460000     -34.16310000     -70.09480000
H      -48.82220000     -32.25440000     -70.64770000
C      -46.73800000     -35.14230000     -70.79600000
C      -44.84230000     -34.65220000     -69.43780000
C      -44.71460000     -36.00710000     -69.66940000
S      -48.44220000     -34.68290000     -71.08530000
S      -46.01620000     -36.75390000     -70.51740000
H      -43.76780000     -36.54140000     -69.47360000
