40
Properties=species:S:1:pos:R:3 #=T CELL(abcABC):=T 1.889726e+02=T 90.00000=T Traj:=T positionsangstrom=T Step:=T 0=T Bead:=T pbc="F F F"
C      -44.85380000     -34.48160000     -73.59690000
C      -43.88060000     -33.59660000     -73.10150000
C      -44.21700000     -32.27150000     -73.00250000
C      -45.45770000     -31.73960000     -73.39550000
C      -46.43850000     -32.62560000     -73.83310000
C      -46.17110000     -33.98000000     -73.79440000
H      -44.72770000     -35.55440000     -73.67390000
H      -43.52880000     -31.45320000     -72.77660000
H      -47.42790000     -32.22980000     -74.09640000
H      -46.98060000     -34.64730000     -73.95120000
C      -45.57500000     -30.25540000     -73.19090000
H      -46.04070000     -29.80270000     -74.04640000
H      -44.49940000     -29.91450000     -73.20550000
C      -42.44790000     -34.16860000     -72.82680000
H      -42.24110000     -35.04610000     -73.47620000
H      -41.73790000     -33.47900000     -73.22790000
S      -46.46800000     -29.65050000     -71.64130000
S      -42.06640000     -34.76670000     -71.13520000
C      -45.26580000     -30.35710000     -70.38010000
H      -44.39030000     -30.78690000     -70.84540000
H      -44.95640000     -29.51900000     -69.77740000
C      -42.60940000     -33.39490000     -70.02330000
H      -43.13240000     -32.68040000     -70.76980000
H      -41.80580000     -32.80090000     -69.57510000
C      -43.52880000     -33.98960000     -68.87910000
H      -42.88440000     -34.64390000     -68.27450000
H      -43.84210000     -33.19630000     -68.23550000
C      -45.92100000     -31.38270000     -69.34700000
H      -46.54140000     -30.73140000     -68.71770000
H      -45.06260000     -31.64780000     -68.71260000
C      -46.53650000     -32.68370000     -69.90750000
C      -47.71870000     -32.69150000     -70.51850000
C      -45.91780000     -34.04680000     -69.83020000
H      -48.35440000     -31.81610000     -70.71460000
C      -46.76270000     -34.99590000     -70.40450000
C      -44.66640000     -34.69590000     -69.51420000
C      -44.61240000     -36.01140000     -69.83510000
S      -48.10680000     -34.26040000     -71.16090000
S      -46.12300000     -36.61310000     -70.49450000
H      -43.65000000     -36.52970000     -69.78160000
