40
Properties=species:S:1:pos:R:3 #=T CELL(abcABC):=T 1.889726e+02=T 90.00000=T Traj:=T positionsangstrom=T Step:=T 0=T Bead:=T pbc="F F F"
C      -44.50640000     -34.31150000     -73.44340000
C      -43.48880000     -33.34670000     -73.16790000
C      -43.86540000     -32.01770000     -73.06940000
C      -45.23120000     -31.61620000     -73.30070000
C      -46.13450000     -32.61550000     -73.46460000
C      -45.81550000     -33.94890000     -73.72350000
H      -44.35740000     -35.36040000     -73.56870000
H      -42.97810000     -31.33880000     -72.97430000
H      -47.15600000     -32.24240000     -73.66950000
H      -46.67740000     -34.55850000     -74.09950000
C      -45.68900000     -30.20780000     -73.19590000
H      -46.39740000     -29.80280000     -73.87990000
H      -44.85550000     -29.51610000     -73.08830000
C      -42.03600000     -33.65510000     -72.87050000
H      -41.62260000     -34.44880000     -73.54430000
H      -41.36340000     -32.76500000     -72.93020000
S      -46.59220000     -29.92910000     -71.54920000
S      -41.94920000     -34.46960000     -71.15400000
C      -45.42950000     -30.69800000     -70.35850000
H      -44.64900000     -31.27770000     -70.87850000
H      -44.91660000     -29.89160000     -69.82740000
C      -42.83600000     -33.18240000     -70.20060000
H      -43.45600000     -32.66160000     -70.94070000
H      -42.14810000     -32.44090000     -69.85070000
C      -43.64460000     -33.74150000     -69.02850000
H      -42.90340000     -34.31200000     -68.44950000
H      -44.07610000     -32.95640000     -68.44340000
C      -46.17440000     -31.57530000     -69.44050000
H      -47.07260000     -31.08040000     -69.11420000
H      -45.54820000     -31.73420000     -68.57390000
C      -46.70850000     -32.85800000     -70.05000000
C      -47.89070000     -32.92380000     -70.69800000
C      -46.05220000     -34.16070000     -69.95950000
H      -48.55090000     -32.07010000     -70.88490000
C      -46.81590000     -35.13310000     -70.58940000
C      -44.78200000     -34.68290000     -69.47810000
C      -44.67560000     -36.03260000     -69.61650000
S      -48.32840000     -34.48830000     -71.26910000
S      -46.16970000     -36.69490000     -70.35400000
H      -43.90620000     -36.62720000     -69.23100000
