40
Properties=species:S:1:pos:R:3 #=T CELL(abcABC):=T 1.889726e+02=T 90.00000=T Traj:=T positionsangstrom=T Step:=T 0=T Bead:=T pbc="F F F"
C      -46.08670000     -34.08500000     -66.86230000
C      -46.08510000     -33.11840000     -67.88000000
C      -44.86680000     -32.63980000     -68.36200000
C      -43.65360000     -33.14870000     -67.91140000
C      -43.63650000     -34.20540000     -66.98360000
C      -44.83480000     -34.59100000     -66.40590000
H      -47.05420000     -34.41260000     -66.38340000
H      -44.92890000     -31.74900000     -69.03370000
H      -42.69360000     -34.81930000     -66.81330000
H      -44.65200000     -35.30230000     -65.54540000
C      -42.47460000     -32.65010000     -68.62110000
H      -41.58960000     -32.36120000     -68.00240000
H      -42.69490000     -31.68320000     -69.20910000
C      -47.42280000     -32.49310000     -68.32350000
H      -48.04500000     -32.17670000     -67.46980000
H      -47.19780000     -31.57540000     -68.93600000
S      -41.92450000     -33.94370000     -69.78280000
S      -48.52510000     -33.68120000     -69.36930000
C      -42.58770000     -33.37040000     -71.48040000
H      -42.78740000     -32.32880000     -71.37180000
H      -41.89980000     -33.42320000     -72.30220000
C      -47.61080000     -33.77000000     -71.03210000
H      -48.29760000     -34.23470000     -71.81350000
H      -46.80620000     -34.48090000     -70.95750000
C      -47.07870000     -32.43810000     -71.60980000
H      -47.89460000     -31.76350000     -71.56130000
H      -46.27390000     -32.14140000     -70.86620000
C      -43.89210000     -34.02780000     -71.87690000
H      -44.67930000     -33.85450000     -71.09970000
H      -43.69790000     -35.07320000     -71.84500000
C      -44.33170000     -33.78700000     -73.27250000
C      -43.59460000     -34.31580000     -74.32450000
C      -45.58350000     -33.19260000     -73.67900000
H      -42.61710000     -34.84990000     -74.17720000
C      -45.72740000     -33.18630000     -75.05360000
C      -46.71780000     -32.50070000     -73.05480000
C      -47.65470000     -32.15410000     -73.99340000
S      -44.36980000     -34.05620000     -75.86110000
S      -47.13970000     -32.38640000     -75.61550000
H      -48.60370000     -31.68340000     -73.95010000
