40
Properties=species:S:1:pos:R:3 #=T CELL(abcABC):=T 1.889726e+02=T 90.00000=T Traj:=T positionsangstrom=T Step:=T 0=T Bead:=T pbc="F F F"
C      -43.82480000     -34.08140000     -73.30060000
C      -43.38530000     -32.80790000     -72.92930000
C      -44.26000000     -31.75170000     -73.07920000
C      -45.59960000     -31.95930000     -73.55570000
C      -45.98300000     -33.22910000     -74.02500000
C      -45.12130000     -34.32530000     -73.81790000
H      -43.11420000     -34.87670000     -73.17870000
H      -43.78850000     -30.71610000     -72.81790000
H      -46.98890000     -33.38350000     -74.51880000
H      -45.42250000     -35.28390000     -74.17100000
C      -46.43040000     -30.72710000     -73.52250000
H      -47.21110000     -30.84040000     -74.31990000
H      -45.75020000     -29.87040000     -73.72660000
C      -41.90900000     -32.68910000     -72.40490000
H      -41.12720000     -33.16160000     -73.00130000
H      -41.66580000     -31.57510000     -72.30760000
S      -47.18290000     -30.38710000     -71.85630000
S      -41.66180000     -33.57070000     -70.80830000
C      -45.82140000     -30.58030000     -70.66120000
H      -44.91790000     -30.85190000     -71.23810000
H      -45.65530000     -29.58740000     -70.13160000
C      -42.97380000     -32.75640000     -69.79190000
H      -43.70990000     -32.44260000     -70.49800000
H      -42.61690000     -31.88790000     -69.22610000
C      -43.61370000     -33.77150000     -68.77920000
H      -42.84010000     -34.38270000     -68.39060000
H      -44.03580000     -33.22350000     -67.86170000
C      -46.27190000     -31.67030000     -69.60330000
H      -47.17550000     -31.29370000     -69.12330000
H      -45.52320000     -31.83890000     -68.85200000
C      -46.76070000     -33.01000000     -70.05050000
C      -48.03160000     -33.22940000     -70.51620000
C      -45.98080000     -34.22260000     -70.03400000
H      -48.75260000     -32.39730000     -70.65810000
C      -46.70540000     -35.27490000     -70.56520000
C      -44.68260000     -34.63310000     -69.51660000
C      -44.50860000     -35.99270000     -69.62930000
S      -48.29090000     -34.88050000     -71.03520000
S      -45.82810000     -36.76860000     -70.59980000
H      -43.70550000     -36.62460000     -69.26250000
