40
Properties=species:S:1:pos:R:3 #=T CELL(abcABC):=T 1.889726e+02=T 90.00000=T Traj:=T positionsangstrom=T Step:=T 0=T Bead:=T pbc="F F F"
C      -43.61570000     -36.34340000     -72.00600000
C      -44.48410000     -36.52780000     -70.87500000
C      -44.16150000     -35.93340000     -69.59320000
C      -43.04540000     -35.15200000     -69.47770000
C      -42.30500000     -34.80560000     -70.65810000
C      -42.55720000     -35.38130000     -71.87660000
H      -43.85080000     -36.94440000     -72.93570000
H      -44.85790000     -35.92440000     -68.80400000
H      -41.48720000     -34.12430000     -70.55650000
H      -41.95120000     -35.17100000     -72.76290000
C      -42.69420000     -34.46460000     -68.21050000
H      -41.71060000     -33.98730000     -68.53520000
H      -42.51010000     -35.17790000     -67.38270000
C      -45.80580000     -37.31500000     -71.06840000
H      -45.74530000     -38.02500000     -71.91280000
H      -45.87070000     -37.98550000     -70.17570000
S      -43.86140000     -33.24750000     -67.62760000
S      -47.36020000     -36.27250000     -71.00810000
C      -44.06070000     -32.09720000     -68.99750000
H      -44.21880000     -31.08230000     -68.59840000
H      -43.14910000     -32.17960000     -69.60740000
C      -46.90690000     -34.84770000     -72.11710000
H      -46.85620000     -35.12000000     -73.19820000
H      -45.80640000     -34.68400000     -71.92120000
C      -47.96130000     -33.74080000     -71.83980000
H      -48.98860000     -34.10620000     -72.17540000
H      -47.93070000     -33.46970000     -70.75400000
C      -45.20070000     -32.44570000     -69.93680000
H      -46.19200000     -32.45930000     -69.44010000
H      -44.96230000     -33.46530000     -70.16010000
C      -45.37010000     -31.55740000     -71.16540000
C      -44.57320000     -30.54040000     -71.48190000
C      -46.38350000     -31.70220000     -72.24690000
H      -43.75260000     -30.08990000     -70.90580000
C      -46.07780000     -30.80550000     -73.30660000
C      -47.48750000     -32.56860000     -72.69200000
C      -47.98790000     -32.33720000     -73.90960000
S      -44.90730000     -29.58710000     -72.87960000
S      -47.13250000     -31.03280000     -74.68770000
H      -48.81480000     -32.91950000     -74.42000000
