40
Properties=species:S:1:pos:R:3 #=T CELL(abcABC):=T 1.889726e+02=T 90.00000=T Traj:=T positionsangstrom=T Step:=T 0=T Bead:=T pbc="F F F"
C      -43.81340000     -34.12240000     -73.24950000
C      -43.14010000     -32.90990000     -72.91810000
C      -43.89570000     -31.69870000     -72.83710000
C      -45.19630000     -31.73670000     -73.30590000
C      -45.88780000     -32.94900000     -73.61790000
C      -45.17940000     -34.16440000     -73.57410000
H      -43.31350000     -35.10640000     -73.29840000
H      -43.35980000     -30.81170000     -72.65050000
H      -46.86720000     -32.81970000     -73.94450000
H      -45.80830000     -35.01850000     -73.82070000
C      -46.11530000     -30.51760000     -73.42880000
H      -46.64110000     -30.45250000     -74.33790000
H      -45.60570000     -29.56220000     -73.36780000
C      -41.71500000     -32.89360000     -72.48170000
H      -41.09200000     -33.48780000     -73.23770000
H      -41.40740000     -31.85160000     -72.51000000
S      -47.41480000     -30.59610000     -72.11820000
S      -41.67090000     -33.70470000     -70.78430000
C      -46.26610000     -30.67870000     -70.64970000
H      -45.24120000     -31.04830000     -70.99450000
H      -46.01380000     -29.73410000     -70.25510000
C      -42.91280000     -32.73230000     -69.77420000
H      -43.63220000     -32.22550000     -70.40150000
H      -42.33550000     -32.04070000     -69.22670000
C      -43.80400000     -33.51160000     -68.85820000
H      -43.16450000     -34.19720000     -68.21900000
H      -44.27560000     -32.79210000     -68.17790000
C      -46.72790000     -31.66600000     -69.61180000
H      -47.59380000     -31.21290000     -69.07410000
H      -45.85510000     -31.75720000     -68.80940000
C      -46.97350000     -33.04460000     -70.17930000
C      -48.17230000     -33.41060000     -70.71570000
C      -46.11370000     -34.16530000     -70.10510000
H      -48.94830000     -32.70600000     -70.86130000
C      -46.66640000     -35.32450000     -70.65690000
C      -44.79150000     -34.41770000     -69.57760000
C      -44.32320000     -35.72470000     -69.81410000
S      -48.29500000     -35.04600000     -71.14820000
S      -45.63160000     -36.69210000     -70.42400000
H      -43.31720000     -36.10950000     -69.61340000
