40
Properties=species:S:1:pos:R:3 #=T CELL(abcABC):=T 1.889726e+02=T 90.00000=T Traj:=T positionsangstrom=T Step:=T 0=T Bead:=T pbc="F F F"
C      -43.72120000     -34.51410000     -73.01290000
C      -43.21970000     -33.29640000     -72.49450000
C      -43.95630000     -32.12040000     -72.68870000
C      -45.23110000     -32.08230000     -73.24960000
C      -45.71530000     -33.36350000     -73.65170000
C      -44.99490000     -34.51940000     -73.53600000
H      -43.05930000     -35.36790000     -72.87280000
H      -43.40110000     -31.20130000     -72.52070000
H      -46.67640000     -33.40970000     -74.12020000
H      -45.44490000     -35.53340000     -73.87230000
C      -45.90490000     -30.76690000     -73.55790000
H      -46.21890000     -30.74400000     -74.58280000
H      -45.19140000     -29.95530000     -73.35740000
C      -41.85260000     -33.21470000     -71.92530000
H      -41.25270000     -34.21080000     -72.04060000
H      -41.25240000     -32.51640000     -72.56170000
S      -47.32010000     -30.31660000     -72.45090000
S      -41.59060000     -32.84930000     -70.13830000
C      -46.51550000     -30.69120000     -70.81080000
H      -45.47860000     -31.13740000     -71.04550000
H      -46.34640000     -29.78150000     -70.21550000
C      -43.24820000     -32.10960000     -69.47980000
H      -43.79810000     -31.63760000     -70.21660000
H      -43.08940000     -31.33100000     -68.79610000
C      -44.20040000     -33.12940000     -68.78700000
H      -43.70890000     -33.67990000     -67.98370000
H      -44.99140000     -32.59810000     -68.30880000
C      -47.28640000     -31.71450000     -69.96760000
H      -48.35400000     -31.51310000     -69.89380000
H      -46.92270000     -31.62190000     -68.93470000
C      -47.23130000     -33.20330000     -70.46420000
C      -48.33150000     -33.78770000     -71.05920000
C      -46.15400000     -34.11590000     -70.21020000
H      -49.26250000     -33.27690000     -71.24290000
C      -46.50320000     -35.37550000     -70.83330000
C      -44.83480000     -34.16610000     -69.66250000
C      -44.26430000     -35.41780000     -69.82500000
S      -48.13190000     -35.49700000     -71.36010000
S      -45.31460000     -36.58580000     -70.60640000
H      -43.33640000     -35.66890000     -69.32180000
