40
Properties=species:S:1:pos:R:3 #=T CELL(abcABC):=T 1.889726e+02=T 90.00000=T Traj:=T positionsangstrom=T Step:=T 0=T Bead:=T pbc="F F F"
C      -43.88310000     -34.54370000     -72.97660000
C      -43.26790000     -33.34040000     -72.55490000
C      -43.92440000     -32.09050000     -72.77460000
C      -45.16860000     -32.01720000     -73.38650000
C      -45.70610000     -33.26690000     -73.78360000
C      -45.11540000     -34.51350000     -73.55570000
H      -43.21410000     -35.40710000     -72.80150000
H      -43.44020000     -31.25820000     -72.39730000
H      -46.69850000     -33.20160000     -74.25150000
H      -45.52570000     -35.41790000     -74.05330000
C      -45.93020000     -30.75860000     -73.61380000
H      -46.56700000     -30.81000000     -74.46980000
H      -45.21270000     -29.89870000     -73.64550000
C      -41.84480000     -33.36090000     -72.06970000
H      -41.27940000     -34.30790000     -72.14240000
H      -41.33500000     -32.64150000     -72.58750000
S      -47.16000000     -30.30190000     -72.25790000
S      -41.73300000     -32.97670000     -70.18460000
C      -46.46820000     -30.74670000     -70.61750000
H      -45.45000000     -31.09520000     -70.67370000
H      -46.48010000     -29.84830000     -70.09220000
C      -43.25190000     -32.12520000     -69.66570000
H      -43.76960000     -31.72210000     -70.56270000
H      -42.79710000     -31.29150000     -69.05570000
C      -44.20710000     -33.00390000     -68.85900000
H      -43.65250000     -33.32910000     -67.90240000
H      -44.92120000     -32.29120000     -68.43160000
C      -47.26530000     -31.74830000     -69.83780000
H      -48.29310000     -31.39310000     -69.83640000
H      -46.78200000     -31.56340000     -68.89320000
C      -47.32300000     -33.23060000     -70.22900000
C      -48.38680000     -33.77150000     -70.86330000
C      -46.16540000     -34.17400000     -70.14710000
H      -49.36910000     -33.31670000     -71.02290000
C      -46.50750000     -35.39340000     -70.74050000
C      -44.83800000     -34.14430000     -69.65810000
C      -44.17380000     -35.34590000     -69.89670000
S      -48.10490000     -35.45070000     -71.34790000
S      -45.25530000     -36.54760000     -70.73860000
H      -43.18510000     -35.65580000     -69.75020000
