40
Properties=species:S:1:pos:R:3 #=T CELL(abcABC):=T 1.889726e+02=T 90.00000=T Traj:=T positionsangstrom=T Step:=T 0=T Bead:=T pbc="F F F"
C      -43.77590000     -34.30110000     -73.24580000
C      -43.16590000     -33.11690000     -72.87710000
C      -43.89530000     -31.93260000     -72.88870000
C      -45.22840000     -31.87440000     -73.33450000
C      -45.84510000     -33.05710000     -73.67100000
C      -45.13030000     -34.28620000     -73.70280000
H      -43.34640000     -35.30120000     -73.27720000
H      -43.33800000     -31.00620000     -72.57990000
H      -46.88620000     -32.92650000     -74.00070000
H      -45.65790000     -35.21600000     -73.85370000
C      -45.95530000     -30.56140000     -73.33310000
H      -46.58680000     -30.41260000     -74.19800000
H      -45.30540000     -29.77120000     -73.11700000
C      -41.73900000     -33.17100000     -72.36150000
H      -41.28370000     -33.99280000     -72.83820000
H      -41.12000000     -32.26080000     -72.42220000
S      -47.26510000     -30.46050000     -72.09130000
S      -41.77360000     -33.48150000     -70.59910000
C      -46.35260000     -30.81240000     -70.52660000
H      -45.48350000     -31.31900000     -70.83070000
H      -46.05970000     -29.88950000     -70.03040000
C      -42.93270000     -32.29490000     -69.85450000
H      -43.33900000     -31.72910000     -70.70180000
H      -42.34370000     -31.60040000     -69.29660000
C      -44.02480000     -33.00960000     -68.99520000
H      -43.37550000     -33.49260000     -68.23640000
H      -44.57340000     -32.15200000     -68.53230000
C      -47.25760000     -31.78530000     -69.61660000
H      -48.25560000     -31.25530000     -69.42760000
H      -46.90970000     -31.80390000     -68.54530000
C      -47.36730000     -33.15480000     -70.15980000
C      -48.46990000     -33.76190000     -70.70200000
C      -46.22140000     -34.14280000     -70.08030000
H      -49.47580000     -33.43990000     -70.83500000
C      -46.54950000     -35.34650000     -70.66850000
C      -44.80910000     -34.11570000     -69.60430000
C      -44.20120000     -35.37430000     -69.74340000
S      -48.17540000     -35.40010000     -71.25080000
S      -45.27310000     -36.52440000     -70.55160000
H      -43.22040000     -35.71940000     -69.38000000
