40
Properties=species:S:1:pos:R:3 #=T CELL(abcABC):=T 1.889726e+02=T 90.00000=T Traj:=T positionsangstrom=T Step:=T 0=T Bead:=T pbc="F F F"
C      -43.83190000     -34.42480000     -73.19520000
C      -43.20040000     -33.26210000     -72.84280000
C      -43.91770000     -32.07100000     -72.98160000
C      -45.21490000     -31.95540000     -73.47940000
C      -45.89370000     -33.15350000     -73.71750000
C      -45.20240000     -34.40910000     -73.63210000
H      -43.28740000     -35.40790000     -73.02820000
H      -43.38500000     -31.15170000     -72.76910000
H      -46.94640000     -33.10060000     -73.96050000
H      -45.68580000     -35.31860000     -73.75310000
C      -45.88100000     -30.61730000     -73.43130000
H      -46.48460000     -30.43350000     -74.39320000
H      -45.15780000     -29.79440000     -73.56930000
C      -41.81400000     -33.28680000     -72.15170000
H      -41.38390000     -34.21910000     -72.52870000
H      -41.24880000     -32.37730000     -72.57430000
S      -47.22690000     -30.46340000     -72.08110000
S      -41.74140000     -33.24950000     -70.28360000
C      -46.30470000     -30.97740000     -70.57930000
H      -45.39250000     -31.47030000     -70.83820000
H      -46.01690000     -30.00150000     -70.00290000
C      -43.10580000     -32.21250000     -69.75840000
H      -43.68820000     -31.87530000     -70.66520000
H      -42.79990000     -31.35180000     -69.19510000
C      -44.13440000     -32.92550000     -68.88890000
H      -43.66360000     -33.36310000     -68.03660000
H      -44.91290000     -32.25830000     -68.49070000
C      -47.24840000     -31.79720000     -69.75880000
H      -48.25820000     -31.37770000     -69.80220000
H      -46.99550000     -31.80000000     -68.71210000
C      -47.39210000     -33.22720000     -70.17700000
C      -48.48890000     -33.76350000     -70.74350000
C      -46.19060000     -34.10910000     -70.14450000
H      -49.39390000     -33.24960000     -71.01680000
C      -46.51970000     -35.32000000     -70.72900000
C      -44.85050000     -34.07670000     -69.61430000
C      -44.19190000     -35.27310000     -69.82080000
S      -48.21680000     -35.40060000     -71.31800000
S      -45.08850000     -36.44230000     -70.67570000
H      -43.14900000     -35.52360000     -69.70500000
