40
Properties=species:S:1:pos:R:3 #=T CELL(abcABC):=T 1.889726e+02=T 90.00000=T Traj:=T positionsangstrom=T Step:=T 0=T Bead:=T pbc="F F F"
C      -43.82270000     -34.25800000     -73.29360000
C      -43.16770000     -33.02730000     -72.91870000
C      -43.81510000     -31.83280000     -73.12040000
C      -45.20970000     -31.79590000     -73.34010000
C      -45.86960000     -32.96060000     -73.76160000
C      -45.13880000     -34.18040000     -73.75200000
H      -43.30850000     -35.20620000     -73.18530000
H      -43.47910000     -30.83630000     -72.84030000
H      -46.92680000     -32.98830000     -73.93790000
H      -45.59490000     -35.06990000     -74.26320000
C      -45.97460000     -30.45180000     -73.30290000
H      -46.35660000     -30.16770000     -74.31350000
H      -45.08570000     -29.73730000     -73.06570000
C      -41.78420000     -33.06220000     -72.41190000
H      -41.21160000     -33.76450000     -73.07050000
H      -41.20120000     -32.15540000     -72.43920000
S      -47.37530000     -30.47540000     -72.11320000
S      -41.60630000     -33.62800000     -70.62840000
C      -46.56390000     -30.65040000     -70.47800000
H      -45.43470000     -30.85840000     -70.72820000
H      -46.58460000     -29.70460000     -69.90190000
C      -42.89300000     -32.55750000     -69.80780000
H      -43.29260000     -31.91030000     -70.57010000
H      -42.38500000     -31.80150000     -69.07840000
C      -43.96560000     -33.24590000     -68.99450000
H      -43.51560000     -33.66470000     -68.09170000
H      -44.63590000     -32.50720000     -68.58440000
C      -47.15600000     -31.67910000     -69.50480000
H      -48.13060000     -31.44460000     -69.29440000
H      -46.51350000     -31.72480000     -68.66960000
C      -47.12490000     -33.07700000     -70.08420000
C      -48.29670000     -33.52440000     -70.64880000
C      -46.14060000     -34.11980000     -70.04040000
H      -49.19940000     -32.98410000     -70.73520000
C      -46.54470000     -35.28760000     -70.65810000
C      -44.78950000     -34.36080000     -69.53900000
C      -44.27740000     -35.65070000     -69.79010000
S      -48.19400000     -35.26330000     -71.17990000
S      -45.46830000     -36.66260000     -70.53660000
H      -43.32780000     -36.06470000     -69.47090000
