40
Properties=species:S:1:pos:R:3 #=T CELL(abcABC):=T 1.889726e+02=T 90.00000=T Traj:=T positionsangstrom=T Step:=T 0=T Bead:=T pbc="F F F"
C      -43.51910000     -34.18910000     -72.88930000
C      -43.00450000     -32.88100000     -72.62350000
C      -43.84700000     -31.77000000     -72.84240000
C      -45.10820000     -31.93220000     -73.43640000
C      -45.49120000     -33.21050000     -73.72730000
C      -44.74320000     -34.34680000     -73.57060000
H      -42.90070000     -35.10510000     -72.69080000
H      -43.42440000     -30.83480000     -72.51460000
H      -46.43300000     -33.32550000     -74.35360000
H      -44.97030000     -35.30080000     -73.99690000
C      -46.02090000     -30.74160000     -73.64140000
H      -46.36100000     -30.68790000     -74.66890000
H      -45.51000000     -29.86470000     -73.34890000
C      -41.77560000     -32.60850000     -71.87050000
H      -40.93990000     -33.16490000     -72.30390000
H      -41.42260000     -31.57850000     -71.85170000
S      -47.55600000     -30.93000000     -72.55620000
S      -41.93030000     -33.15410000     -70.13680000
C      -46.72520000     -30.73160000     -70.88970000
H      -45.68010000     -30.83120000     -71.12490000
H      -46.83630000     -29.66250000     -70.57250000
C      -43.39560000     -32.32330000     -69.47100000
H      -43.96320000     -32.01230000     -70.31450000
H      -43.05930000     -31.44120000     -68.97250000
C      -44.26660000     -33.10390000     -68.51950000
H      -43.61200000     -33.52540000     -67.70840000
H      -44.99990000     -32.51030000     -67.96830000
C      -47.35380000     -31.77300000     -69.96770000
H      -48.46950000     -31.66220000     -69.81370000
H      -46.91800000     -31.64040000     -68.97520000
C      -47.19100000     -33.21010000     -70.45530000
C      -48.11780000     -33.73010000     -71.29660000
C      -46.24290000     -34.22160000     -70.02840000
H      -49.01870000     -33.19010000     -71.63320000
C      -46.45910000     -35.43370000     -70.62730000
C      -45.00360000     -34.19400000     -69.21320000
C      -44.44510000     -35.41450000     -69.27610000
S      -47.82510000     -35.36910000     -71.78790000
S      -45.21100000     -36.56420000     -70.40680000
H      -43.43550000     -35.52740000     -68.87430000
