40
Properties=species:S:1:pos:R:3 #=T CELL(abcABC):=T 1.889726e+02=T 90.00000=T Traj:=T positionsangstrom=T Step:=T 0=T Bead:=T pbc="F F F"
C      -43.63110000     -34.30830000     -72.85440000
C      -43.14310000     -33.08690000     -72.50250000
C      -43.85600000     -31.94550000     -72.87340000
C      -45.16150000     -32.02480000     -73.40160000
C      -45.60100000     -33.30340000     -73.76780000
C      -44.89360000     -34.40950000     -73.45130000
H      -43.06510000     -35.21220000     -72.60190000
H      -43.47090000     -30.94160000     -72.53030000
H      -46.58390000     -33.43120000     -74.14660000
H      -45.22770000     -35.47680000     -73.71160000
C      -45.98620000     -30.80150000     -73.66990000
H      -46.38260000     -30.90480000     -74.73020000
H      -45.47460000     -29.80100000     -73.75840000
C      -41.79200000     -33.00260000     -71.88300000
H      -41.30610000     -33.82910000     -72.32350000
H      -41.36530000     -32.04490000     -72.25960000
S      -47.42760000     -30.66630000     -72.54120000
S      -41.70470000     -32.98620000     -70.01600000
C      -46.74180000     -30.70920000     -70.76780000
H      -45.67010000     -30.76140000     -70.75810000
H      -47.01410000     -29.71610000     -70.42580000
C      -43.28800000     -32.11660000     -69.54690000
H      -43.71910000     -31.84720000     -70.53210000
H      -42.94460000     -31.19760000     -68.91610000
C      -44.22850000     -33.06910000     -68.78240000
H      -43.66070000     -33.50550000     -67.93810000
H      -45.03520000     -32.36020000     -68.40570000
C      -47.30110000     -31.81540000     -69.81560000
H      -48.34280000     -31.57390000     -69.71730000
H      -46.92990000     -31.77960000     -68.77740000
C      -47.16420000     -33.22180000     -70.43160000
C      -48.27600000     -33.72230000     -71.05800000
C      -46.14160000     -34.15960000     -70.25500000
H      -49.09230000     -33.13420000     -71.46010000
C      -46.48160000     -35.43240000     -70.81260000
C      -44.88000000     -34.16430000     -69.56840000
C      -44.33530000     -35.42440000     -69.57070000
S      -48.01060000     -35.35140000     -71.64970000
S      -45.28730000     -36.63570000     -70.41560000
H      -43.31150000     -35.61520000     -69.19220000
