40
Properties=species:S:1:pos:R:3 #=T CELL(abcABC):=T 1.889726e+02=T 90.00000=T Traj:=T positionsangstrom=T Step:=T 0=T Bead:=T pbc="F F F"
C      -44.57060000     -34.13880000     -67.63790000
C      -44.95530000     -32.82080000     -67.98300000
C      -44.00380000     -32.03950000     -68.63700000
C      -42.71180000     -32.54910000     -68.86970000
C      -42.25450000     -33.76600000     -68.39430000
C      -43.24370000     -34.59430000     -67.90790000
H      -45.27170000     -34.78450000     -67.17210000
H      -44.25390000     -31.10290000     -69.01170000
H      -41.29460000     -34.11370000     -68.51390000
H      -42.93250000     -35.61080000     -67.56160000
C      -41.74310000     -31.62970000     -69.66150000
H      -40.90830000     -31.43340000     -69.01390000
H      -42.19730000     -30.64680000     -69.89520000
C      -46.38610000     -32.35430000     -67.74490000
H      -46.48260000     -32.16920000     -66.74270000
H      -46.52210000     -31.29030000     -68.15860000
S      -41.29580000     -32.45140000     -71.30180000
S      -47.73440000     -33.51770000     -68.38660000
C      -42.92890000     -32.38510000     -72.33490000
H      -43.13900000     -31.33660000     -72.24530000
H      -42.64080000     -32.60100000     -73.35430000
C      -47.21410000     -33.80740000     -70.15520000
H      -47.83750000     -34.61750000     -70.51660000
H      -46.12990000     -34.05870000     -70.22100000
C      -47.36760000     -32.54780000     -71.07420000
H      -48.30550000     -32.03140000     -70.70060000
H      -46.50420000     -31.95730000     -70.87190000
C      -44.13480000     -33.25010000     -71.94780000
H      -44.70550000     -32.76190000     -71.14640000
H      -43.71430000     -34.17790000     -71.55170000
C      -44.97260000     -33.66080000     -73.14730000
C      -44.46630000     -34.32730000     -74.20870000
C      -46.42020000     -33.63270000     -73.28950000
H      -43.39550000     -34.45890000     -74.32920000
C      -46.93420000     -34.26080000     -74.42990000
C      -47.51870000     -33.03000000     -72.45470000
C      -48.75140000     -33.24380000     -73.05780000
S      -45.68910000     -34.71010000     -75.52140000
S      -48.66870000     -34.18070000     -74.52510000
H      -49.59250000     -33.04620000     -72.44010000
