40
Properties=species:S:1:pos:R:3 #=T CELL(abcABC):=T 1.889726e+02=T 90.00000=T Traj:=T positionsangstrom=T Step:=T 0=T Bead:=T pbc="F F F"
C      -47.98590000     -35.46050000     -72.58990000
C      -46.89550000     -36.31750000     -72.98200000
C      -46.16410000     -36.86220000     -71.91130000
C      -46.46420000     -36.51360000     -70.54940000
C      -47.68350000     -35.86790000     -70.25390000
C      -48.41900000     -35.33590000     -71.26280000
H      -48.52480000     -34.78680000     -73.37800000
H      -45.21060000     -37.45980000     -72.12610000
H      -47.95540000     -35.82260000     -69.14560000
H      -49.31570000     -34.72500000     -71.02090000
C      -45.51230000     -36.84210000     -69.47240000
H      -44.53840000     -36.75950000     -69.99920000
H      -45.72530000     -37.82750000     -69.04410000
C      -46.38140000     -36.28470000     -74.39950000
H      -45.95680000     -37.25660000     -74.66630000
H      -47.11190000     -35.97960000     -75.13720000
S      -45.54300000     -35.72970000     -67.94890000
S      -44.87390000     -35.22240000     -74.57830000
C      -45.25810000     -33.98890000     -68.45680000
H      -46.00440000     -33.52640000     -67.88120000
H      -44.28440000     -33.77210000     -67.97570000
C      -45.06960000     -33.71100000     -73.49180000
H      -45.51980000     -33.95590000     -72.56430000
H      -45.69280000     -32.98150000     -74.02080000
C      -43.71500000     -33.11070000     -72.99110000
H      -43.34400000     -33.74220000     -72.19950000
H      -42.90800000     -33.05650000     -73.79670000
C      -45.14100000     -33.49190000     -69.89660000
H      -45.89920000     -33.89820000     -70.56210000
H      -44.22540000     -33.96920000     -70.27380000
C      -44.93550000     -31.96220000     -70.05560000
C      -45.32230000     -31.12510000     -69.05930000
C      -44.32720000     -31.26420000     -71.19780000
H      -45.86980000     -31.35050000     -68.14410000
C      -44.36340000     -29.91490000     -71.04310000
C      -43.92730000     -31.64760000     -72.50570000
C      -43.41440000     -30.58040000     -73.25770000
S      -44.92220000     -29.39600000     -69.43730000
S      -43.67840000     -29.00450000     -72.39890000
H      -42.82700000     -30.64590000     -74.15830000
