40
Properties=species:S:1:pos:R:3 #=T CELL(abcABC):=T 1.889726e+02=T 90.00000=T Traj:=T positionsangstrom=T Step:=T 0=T Bead:=T pbc="F F F"
C      -44.61240000     -33.96480000     -67.10800000
C      -45.08660000     -32.80360000     -67.71960000
C      -44.27360000     -32.02440000     -68.55570000
C      -42.99710000     -32.48520000     -68.91530000
C      -42.53800000     -33.71560000     -68.41830000
C      -43.30580000     -34.35970000     -67.40260000
H      -45.16760000     -34.56790000     -66.41900000
H      -44.59710000     -31.10320000     -68.94100000
H      -41.60450000     -34.14800000     -68.60060000
H      -42.91770000     -35.26690000     -66.99190000
C      -42.03520000     -31.62060000     -69.73060000
H      -41.20630000     -31.33970000     -69.13490000
H      -42.46450000     -30.66730000     -70.06060000
C      -46.47110000     -32.33830000     -67.42610000
H      -46.74380000     -32.41300000     -66.45550000
H      -46.75800000     -31.30760000     -67.81690000
S      -41.43880000     -32.36150000     -71.33180000
S      -47.77520000     -33.46540000     -68.37350000
C      -42.91000000     -32.31620000     -72.44420000
H      -43.39070000     -31.32610000     -72.47190000
H      -42.55720000     -32.51520000     -73.51360000
C      -47.14190000     -33.90950000     -70.04610000
H      -47.74750000     -34.69380000     -70.45240000
H      -46.10060000     -34.18000000     -69.82750000
C      -47.17600000     -32.75520000     -71.02900000
H      -48.07240000     -32.16140000     -70.79000000
H      -46.33020000     -32.18410000     -70.87820000
C      -43.98410000     -33.40380000     -72.12490000
H      -44.52610000     -32.98410000     -71.27010000
H      -43.45150000     -34.18190000     -71.66320000
C      -44.84630000     -33.86100000     -73.27950000
C      -44.27870000     -34.43030000     -74.43720000
C      -46.30680000     -33.71680000     -73.34990000
H      -43.20900000     -34.51450000     -74.58370000
C      -46.80590000     -34.19610000     -74.56700000
C      -47.34650000     -33.25320000     -72.48550000
C      -48.60820000     -33.35700000     -73.06720000
S      -45.60130000     -34.77190000     -75.64110000
S      -48.50010000     -34.07390000     -74.72520000
H      -49.54980000     -32.96680000     -72.74780000
