40
Properties=species:S:1:pos:R:3 #=T CELL(abcABC):=T 1.889726e+02=T 90.00000=T Traj:=T positionsangstrom=T Step:=T 0=T Bead:=T pbc="F F F"
C      -43.15630000     -33.78700000     -72.71070000
C      -42.85030000     -32.44720000     -72.28430000
C      -43.72670000     -31.46820000     -72.80320000
C      -44.93430000     -31.82430000     -73.51770000
C      -45.25380000     -33.17810000     -73.66080000
C      -44.34930000     -34.09930000     -73.29050000
H      -42.37790000     -34.50820000     -72.48090000
H      -43.48370000     -30.46540000     -72.65490000
H      -46.19950000     -33.43980000     -74.18590000
H      -44.57450000     -35.13990000     -73.34580000
C      -45.89290000     -30.75730000     -73.97550000
H      -46.34070000     -31.04730000     -74.95070000
H      -45.50730000     -29.73210000     -73.95630000
C      -41.72940000     -32.12610000     -71.35010000
H      -40.80150000     -32.57830000     -71.79340000
H      -41.63460000     -31.05260000     -71.23290000
S      -47.39530000     -30.79090000     -72.83960000
S      -42.11870000     -32.85210000     -69.65100000
C      -46.86810000     -30.94770000     -71.02750000
H      -45.76240000     -31.01380000     -71.02050000
H      -47.06340000     -30.01950000     -70.54680000
C      -43.84160000     -32.07220000     -69.33000000
H      -44.21010000     -31.85810000     -70.31970000
H      -43.70710000     -31.18520000     -68.82590000
C      -44.77590000     -33.03340000     -68.53930000
H      -44.29650000     -33.14630000     -67.52380000
H      -45.69350000     -32.46720000     -68.41210000
C      -47.52320000     -32.04430000     -70.28030000
H      -48.60910000     -31.83190000     -70.16680000
H      -47.18430000     -31.95430000     -69.24160000
C      -47.29550000     -33.46880000     -70.76910000
C      -48.05770000     -34.00310000     -71.77030000
C      -46.25300000     -34.40860000     -70.26810000
H      -48.86470000     -33.43720000     -72.35050000
C      -46.39190000     -35.68020000     -70.80520000
C      -45.11150000     -34.34840000     -69.36170000
C      -44.48340000     -35.57320000     -69.27390000
S      -47.72080000     -35.70080000     -71.99780000
S      -45.30060000     -36.91730000     -70.15530000
H      -43.79990000     -35.76330000     -68.43660000
