40
Properties=species:S:1:pos:R:3 #=T CELL(abcABC):=T 1.889726e+02=T 90.00000=T Traj:=T positionsangstrom=T Step:=T 0=T Bead:=T pbc="F F F"
C      -42.65580000     -33.57420000     -71.95480000
C      -43.00150000     -32.27410000     -71.49500000
C      -43.89040000     -31.46180000     -72.21450000
C      -44.65290000     -32.13830000     -73.24130000
C      -44.41420000     -33.46140000     -73.65400000
C      -43.33170000     -34.11040000     -73.04500000
H      -41.92090000     -34.16320000     -71.40440000
H      -44.35750000     -30.56570000     -71.91780000
H      -45.17610000     -33.95410000     -74.30060000
H      -42.93580000     -35.07630000     -73.43570000
C      -45.71950000     -31.35300000     -73.95180000
H      -45.65260000     -31.58550000     -75.01810000
H      -45.47540000     -30.28010000     -73.84830000
C      -42.28320000     -31.59230000     -70.33730000
H      -41.24530000     -31.88430000     -70.26310000
H      -42.37550000     -30.47410000     -70.32260000
S      -47.45350000     -31.75410000     -73.45590000
S      -42.99350000     -32.04300000     -68.65220000
C      -47.74950000     -31.37560000     -71.70970000
H      -46.80130000     -30.95540000     -71.30190000
H      -48.48180000     -30.53780000     -71.61050000
C      -44.86920000     -31.70050000     -68.94760000
H      -44.92590000     -31.47910000     -69.98880000
H      -45.09270000     -30.86610000     -68.27660000
C      -45.74830000     -32.88470000     -68.52000000
H      -45.53790000     -33.10110000     -67.48820000
H      -46.78850000     -32.56070000     -68.66760000
C      -48.24350000     -32.60510000     -70.84400000
H      -49.34230000     -32.76800000     -70.92940000
H      -48.05160000     -32.29660000     -69.80570000
C      -47.44010000     -33.87070000     -71.26510000
C      -47.92770000     -34.62010000     -72.30350000
C      -46.28600000     -34.40530000     -70.59260000
H      -48.74470000     -34.38020000     -72.99800000
C      -45.74880000     -35.49430000     -71.26340000
C      -45.55590000     -34.05280000     -69.41480000
C      -44.55450000     -34.96120000     -69.19040000
S      -46.80510000     -35.91320000     -72.62420000
S      -44.48150000     -36.26290000     -70.36130000
H      -43.91130000     -34.91020000     -68.34800000
