40
Properties=species:S:1:pos:R:3 #=T CELL(abcABC):=T 1.889726e+02=T 90.00000=T Traj:=T positionsangstrom=T Step:=T 0=T Bead:=T pbc="F F F"
C      -42.89290000     -33.75420000     -72.69070000
C      -42.92550000     -32.41960000     -72.18260000
C      -43.87680000     -31.47650000     -72.47320000
C      -44.98650000     -31.96140000     -73.26520000
C      -45.01200000     -33.30910000     -73.73600000
C      -43.97110000     -34.16390000     -73.38800000
H      -42.05690000     -34.42780000     -72.36990000
H      -43.73440000     -30.38580000     -72.10760000
H      -45.80440000     -33.67530000     -74.32590000
H      -43.98180000     -35.19970000     -73.72100000
C      -45.98060000     -30.96890000     -73.80580000
H      -46.10690000     -31.16500000     -74.89390000
H      -45.79050000     -29.89190000     -73.62380000
C      -41.89410000     -31.94810000     -71.22450000
H      -40.97290000     -32.50380000     -71.40000000
H      -41.73850000     -30.84020000     -71.38920000
S      -47.72980000     -31.35070000     -73.12990000
S      -42.43040000     -32.15160000     -69.40610000
C      -47.39450000     -31.10630000     -71.31320000
H      -46.30220000     -31.03250000     -71.19850000
H      -47.85470000     -30.15260000     -70.98610000
C      -44.20540000     -31.78440000     -69.39850000
H      -44.60250000     -31.82280000     -70.40670000
H      -44.21300000     -30.77590000     -69.04870000
C      -44.98250000     -32.86830000     -68.50820000
H      -44.44740000     -33.09150000     -67.60900000
H      -45.94970000     -32.42060000     -68.32480000
C      -47.86520000     -32.31110000     -70.37860000
H      -48.98900000     -32.29420000     -70.25430000
H      -47.59500000     -32.10500000     -69.30290000
C      -47.33610000     -33.67700000     -70.89180000
C      -47.95310000     -34.38960000     -71.89330000
C      -46.18800000     -34.37590000     -70.31900000
H      -48.77820000     -34.31520000     -72.58630000
C      -46.05710000     -35.68140000     -70.83520000
C      -45.24140000     -34.12880000     -69.24980000
C      -44.44110000     -35.25690000     -69.06760000
S      -47.23840000     -36.06450000     -72.08270000
S      -44.79470000     -36.55010000     -70.15890000
H      -43.62410000     -35.38500000     -68.36900000
