40
Properties=species:S:1:pos:R:3 #=T CELL(abcABC):=T 1.889726e+02=T 90.00000=T Traj:=T positionsangstrom=T Step:=T 0=T Bead:=T pbc="F F F"
C      -42.65010000     -33.44430000     -71.79230000
C      -43.00910000     -32.16940000     -71.36230000
C      -44.06680000     -31.44570000     -71.97410000
C      -44.71370000     -32.02370000     -73.11510000
C      -44.29540000     -33.33260000     -73.57790000
C      -43.26610000     -33.95230000     -72.93380000
H      -41.83530000     -34.08600000     -71.34120000
H      -44.09750000     -30.42270000     -71.76030000
H      -44.74050000     -33.64350000     -74.48540000
H      -42.94600000     -35.03240000     -73.23560000
C      -45.70200000     -31.22770000     -73.93140000
H      -45.55680000     -31.41120000     -74.98620000
H      -45.71020000     -30.16200000     -73.73950000
C      -42.33330000     -31.62050000     -70.14750000
H      -41.30970000     -31.92660000     -70.17100000
H      -42.24570000     -30.54060000     -70.13020000
S      -47.50550000     -31.62810000     -73.67210000
S      -43.07170000     -32.12780000     -68.59590000
C      -47.45960000     -31.57140000     -71.85390000
H      -46.42410000     -31.53200000     -71.49080000
H      -47.99890000     -30.64350000     -71.60150000
C      -44.87020000     -31.68420000     -68.73060000
H      -45.04890000     -31.13460000     -69.64880000
H      -45.22360000     -30.94870000     -67.95490000
C      -45.84580000     -32.87510000     -68.55320000
H      -45.79260000     -33.19570000     -67.47120000
H      -46.88150000     -32.47600000     -68.59210000
C      -48.24170000     -32.67410000     -71.15050000
H      -49.24500000     -32.68770000     -71.52270000
H      -48.29940000     -32.33710000     -70.12130000
C      -47.48440000     -33.97320000     -71.39020000
C      -47.69510000     -34.66810000     -72.59180000
C      -46.41900000     -34.48510000     -70.55620000
H      -48.45320000     -34.33160000     -73.34370000
C      -45.85010000     -35.58510000     -71.22600000
C      -45.63880000     -34.03180000     -69.42360000
C      -44.56910000     -34.89560000     -69.22410000
S      -46.69630000     -36.10200000     -72.57960000
S      -44.48350000     -36.23930000     -70.39470000
H      -43.81690000     -34.66790000     -68.48520000
