40
Properties=species:S:1:pos:R:3 #=T CELL(abcABC):=T 1.889726e+02=T 90.00000=T Traj:=T positionsangstrom=T Step:=T 0=T Bead:=T pbc="F F F"
C      -45.04930000     -33.36000000     -66.96300000
C      -45.50260000     -32.43610000     -67.86990000
C      -44.61200000     -31.79670000     -68.81270000
C      -43.27970000     -32.15770000     -68.80480000
C      -42.76520000     -32.94980000     -67.77490000
C      -43.62450000     -33.48780000     -66.84140000
H      -45.69280000     -33.77520000     -66.16320000
H      -45.04370000     -30.99410000     -69.43340000
H      -41.70010000     -33.13200000     -67.68360000
H      -43.26450000     -33.98440000     -65.95250000
C      -42.29500000     -31.39540000     -69.67960000
H      -41.38030000     -31.24190000     -69.12250000
H      -42.65740000     -30.38680000     -69.79290000
C      -46.98710000     -32.23700000     -67.91580000
H      -47.42850000     -32.02560000     -66.90760000
H      -47.32480000     -31.48030000     -68.65430000
S      -41.79100000     -32.20990000     -71.18450000
S      -47.82840000     -33.84670000     -68.50390000
C      -43.36250000     -32.66360000     -72.11370000
H      -44.22290000     -32.10240000     -71.78330000
H      -43.08230000     -32.34880000     -73.11790000
C      -47.76810000     -33.82070000     -70.33980000
H      -48.76460000     -33.49040000     -70.67570000
H      -47.76590000     -34.84980000     -70.75960000
C      -46.76060000     -32.99990000     -71.12850000
H      -46.92290000     -31.96860000     -70.95560000
H      -45.75440000     -33.19420000     -70.75720000
C      -43.74820000     -34.21160000     -72.01120000
H      -44.34080000     -34.37940000     -71.06950000
H      -42.82770000     -34.80470000     -72.12720000
C      -44.60590000     -34.50810000     -73.18620000
C      -44.06900000     -35.05660000     -74.31130000
C      -45.92510000     -34.00490000     -73.28050000
H      -43.06230000     -35.51560000     -74.24770000
C      -46.30910000     -34.26120000     -74.61830000
C      -46.95320000     -33.35300000     -72.55600000
C      -48.07600000     -33.05490000     -73.28980000
S      -45.25530000     -35.23100000     -75.61720000
S      -47.95770000     -33.67740000     -75.01410000
H      -48.97750000     -32.55720000     -72.78530000
