40
Properties=species:S:1:pos:R:3 #=T CELL(abcABC):=T 1.889726e+02=T 90.00000=T Traj:=T positionsangstrom=T Step:=T 0=T Bead:=T pbc="F F F"
C      -45.72720000     -34.72740000     -67.72110000
C      -44.32810000     -34.64560000     -67.99680000
C      -43.79470000     -33.33390000     -68.11590000
C      -44.59770000     -32.17900000     -68.12580000
C      -45.98320000     -32.26010000     -67.81340000
C      -46.55550000     -33.59110000     -67.76110000
H      -46.16110000     -35.67260000     -67.46480000
H      -42.80440000     -33.23440000     -68.48500000
H      -46.70000000     -31.47460000     -67.91100000
H      -47.62910000     -33.73560000     -67.61260000
C      -43.97610000     -30.85860000     -68.35800000
H      -42.91180000     -30.93090000     -68.60870000
H      -44.04300000     -30.05540000     -67.56620000
C      -43.42980000     -35.80830000     -68.36530000
H      -42.51150000     -35.38650000     -68.71270000
H      -43.26060000     -36.38520000     -67.46500000
S      -44.88890000     -29.90530000     -69.69350000
S      -44.11450000     -36.87200000     -69.84610000
C      -44.97340000     -31.07190000     -71.14300000
H      -45.02370000     -30.42640000     -72.06680000
H      -44.02100000     -31.61880000     -71.23110000
C      -45.10590000     -35.78630000     -70.93980000
H      -45.66500000     -35.11060000     -70.33020000
H      -45.80130000     -36.31250000     -71.50120000
C      -44.24180000     -35.02960000     -71.99460000
H      -43.72170000     -34.05800000     -71.62850000
H      -43.36930000     -35.60810000     -72.34600000
C      -46.16510000     -32.07770000     -71.11810000
H      -47.04760000     -31.58780000     -70.75950000
H      -45.93230000     -32.94870000     -70.54990000
C      -46.54160000     -32.40820000     -72.54740000
C      -47.27670000     -31.58500000     -73.32630000
C      -45.91080000     -33.48300000     -73.38990000
H      -47.81270000     -30.74250000     -73.09060000
C      -46.33680000     -33.34390000     -74.70500000
C      -44.93630000     -34.57600000     -73.27700000
C      -44.64920000     -35.11390000     -74.51120000
S      -47.37160000     -32.04780000     -75.04550000
S      -45.45500000     -34.31610000     -75.83740000
H      -43.88110000     -35.81380000     -74.81200000
