40
Properties=species:S:1:pos:R:3 #=T CELL(abcABC):=T 1.889726e+02=T 90.00000=T Traj:=T positionsangstrom=T Step:=T 0=T Bead:=T pbc="F F F"
C      -45.66030000     -34.72840000     -68.03070000
C      -44.25050000     -34.56250000     -68.09060000
C      -43.72060000     -33.27200000     -68.20950000
C      -44.61200000     -32.18560000     -68.12740000
C      -45.97120000     -32.31230000     -67.91410000
C      -46.45260000     -33.62490000     -67.70130000
H      -46.18910000     -35.65370000     -68.12270000
H      -42.73040000     -33.09060000     -68.14080000
H      -46.48510000     -31.35270000     -67.68420000
H      -47.51570000     -33.69020000     -67.55890000
C      -44.04350000     -30.75570000     -68.39810000
H      -42.97630000     -30.83930000     -68.61570000
H      -44.01930000     -30.24460000     -67.43530000
C      -43.43160000     -35.81600000     -68.33840000
H      -42.37740000     -35.60490000     -68.60770000
H      -43.28990000     -36.55530000     -67.50150000
S      -45.01780000     -29.87910000     -69.65620000
S      -44.20430000     -36.78010000     -69.71480000
C      -44.99530000     -31.04290000     -71.09570000
H      -44.95660000     -30.37230000     -71.97490000
H      -44.02580000     -31.57700000     -71.22090000
C      -44.94600000     -35.54920000     -70.94720000
H      -45.42370000     -34.78050000     -70.34620000
H      -45.75890000     -36.19710000     -71.50580000
C      -44.04130000     -34.85390000     -71.97330000
H      -43.57410000     -33.99650000     -71.49340000
H      -43.36500000     -35.63510000     -72.21680000
C      -46.16020000     -32.03990000     -71.13760000
H      -47.04460000     -31.50750000     -70.67670000
H      -46.03490000     -32.87990000     -70.51320000
C      -46.51580000     -32.43010000     -72.61880000
C      -47.48490000     -31.80880000     -73.32180000
C      -45.76520000     -33.34670000     -73.46270000
H      -48.13140000     -31.02350000     -72.95770000
C      -46.20340000     -33.27800000     -74.81330000
C      -44.73890000     -34.39850000     -73.26490000
C      -44.53460000     -35.12550000     -74.40020000
S      -47.47410000     -32.13540000     -75.08730000
S      -45.52780000     -34.63330000     -75.75540000
H      -43.80550000     -35.90250000     -74.63770000
