40
Properties=species:S:1:pos:R:3 #=T CELL(abcABC):=T 1.889726e+02=T 90.00000=T Traj:=T positionsangstrom=T Step:=T 0=T Bead:=T pbc="F F F"
C      -43.36650000     -36.81330000     -73.09240000
C      -43.51740000     -36.33600000     -71.72640000
C      -43.05470000     -35.08230000     -71.44370000
C      -42.14640000     -34.40810000     -72.28080000
C      -41.96730000     -34.94720000     -73.58240000
C      -42.58850000     -36.10530000     -74.04660000
H      -43.67100000     -37.89250000     -73.33980000
H      -43.25930000     -34.85180000     -70.32820000
H      -41.33800000     -34.36250000     -74.27180000
H      -42.48220000     -36.51380000     -74.97630000
C      -41.42960000     -33.11060000     -71.95260000
H      -40.34830000     -33.29100000     -72.29150000
H      -41.49700000     -32.86320000     -70.85810000
C      -44.37310000     -37.08140000     -70.76140000
H      -44.89960000     -37.97000000     -71.10660000
H      -43.86400000     -37.33940000     -69.83570000
S      -42.27010000     -31.74870000     -72.93620000
S      -45.76170000     -35.90850000     -70.35050000
C      -43.78310000     -31.75860000     -71.79650000
H      -44.02150000     -32.81720000     -71.49800000
H      -43.50890000     -31.16550000     -70.88680000
C      -46.55150000     -35.69970000     -71.96820000
H      -47.53290000     -36.26000000     -72.09220000
H      -45.91800000     -36.16480000     -72.76350000
C      -46.72740000     -34.22630000     -72.32810000
H      -45.79080000     -33.73390000     -72.57410000
H      -47.40320000     -34.11180000     -73.17690000
C      -45.11200000     -31.06190000     -72.42060000
H      -45.17050000     -31.54440000     -73.36860000
H      -44.68100000     -30.03100000     -72.69280000
C      -46.20470000     -30.97120000     -71.34810000
C      -46.52750000     -29.81480000     -70.64900000
C      -47.04830000     -32.01280000     -70.82510000
H      -45.93680000     -28.91200000     -70.74400000
C      -47.84820000     -31.56800000     -69.79830000
C      -47.35520000     -33.37730000     -71.18450000
C      -48.32160000     -33.87770000     -70.33780000
S      -47.56480000     -29.92600000     -69.28820000
S      -48.97300000     -32.74120000     -69.13260000
H      -48.54990000     -34.95430000     -70.30920000
