40
Properties=species:S:1:pos:R:3 #=T CELL(abcABC):=T 1.889726e+02=T 90.00000=T Traj:=T positionsangstrom=T Step:=T 0=T Bead:=T pbc="F F F"
C      -42.73920000     -32.89370000     -71.21010000
C      -43.42160000     -31.70850000     -70.85230000
C      -44.17500000     -31.12170000     -71.81040000
C      -44.51460000     -31.74470000     -73.05140000
C      -43.87090000     -32.94560000     -73.33810000
C      -43.05400000     -33.47190000     -72.40760000
H      -42.02900000     -33.30700000     -70.50360000
H      -44.68170000     -30.18300000     -71.58530000
H      -44.17380000     -33.56490000     -74.26180000
H      -42.69710000     -34.47210000     -72.56330000
C      -45.48380000     -30.89790000     -73.94750000
H      -45.22230000     -31.20300000     -74.97630000
H      -45.23000000     -29.84430000     -73.85700000
C      -43.22550000     -31.03470000     -69.47880000
H      -42.19860000     -30.79020000     -69.34960000
H      -43.85520000     -30.18230000     -69.33440000
S      -47.25490000     -31.36010000     -73.61840000
S      -43.68180000     -32.34990000     -68.22650000
C      -47.46170000     -31.45150000     -71.87570000
H      -46.44610000     -31.34910000     -71.43460000
H      -48.15060000     -30.68890000     -71.51290000
C      -45.58710000     -32.30080000     -68.49130000
H      -45.69910000     -31.86310000     -69.49980000
H      -45.97390000     -31.56290000     -67.75630000
C      -46.32590000     -33.62860000     -68.51990000
H      -46.51810000     -34.17220000     -67.57530000
H      -47.35030000     -33.25960000     -68.72070000
C      -47.97010000     -32.84070000     -71.42230000
H      -48.97590000     -33.02150000     -71.81540000
H      -48.12820000     -32.79110000     -70.31360000
C      -47.09760000     -33.98410000     -71.83900000
C      -47.28070000     -34.62660000     -73.02290000
C      -46.18480000     -34.61520000     -70.96290000
H      -47.94960000     -34.32250000     -73.85900000
C      -45.53020000     -35.68410000     -71.63650000
C      -45.77310000     -34.54580000     -69.58170000
C      -44.82310000     -35.52020000     -69.19310000
S      -46.15540000     -36.00110000     -73.23510000
S      -44.38960000     -36.59720000     -70.58700000
H      -44.23300000     -35.55690000     -68.29710000
