40
Properties=species:S:1:pos:R:3 #=T CELL(abcABC):=T 1.889726e+02=T 90.00000=T Traj:=T positionsangstrom=T Step:=T 0=T Bead:=T pbc="F F F"
C      -42.79600000     -33.13370000     -71.63030000
C      -43.19290000     -31.87500000     -71.25020000
C      -44.04830000     -31.08160000     -72.08220000
C      -44.56960000     -31.62480000     -73.25280000
C      -44.22640000     -32.95210000     -73.62420000
C      -43.42360000     -33.70520000     -72.82910000
H      -42.27100000     -33.73240000     -70.96420000
H      -44.24840000     -30.04290000     -71.86770000
H      -44.61000000     -33.49850000     -74.47970000
H      -43.37900000     -34.71730000     -72.92970000
C      -45.51540000     -30.76840000     -73.94600000
H      -45.40580000     -30.58160000     -75.04670000
H      -45.57250000     -29.79390000     -73.51390000
C      -42.62960000     -31.38230000     -69.93860000
H      -41.54980000     -31.51570000     -69.80010000
H      -42.77710000     -30.28060000     -69.99120000
S      -47.16190000     -31.46080000     -73.83450000
S      -43.40490000     -32.09860000     -68.41220000
C      -47.51380000     -31.42660000     -72.02170000
H      -46.52050000     -31.24500000     -71.58450000
H      -48.18240000     -30.61700000     -71.75070000
C      -45.30290000     -32.00800000     -68.90360000
H      -45.36130000     -31.89610000     -69.93560000
H      -45.83400000     -31.10070000     -68.48720000
C      -46.03260000     -33.27360000     -68.47000000
H      -45.73870000     -33.43430000     -67.41480000
H      -47.19090000     -33.15130000     -68.44170000
C      -48.11850000     -32.70980000     -71.34500000
H      -49.07750000     -32.95340000     -71.81940000
H      -48.31900000     -32.44640000     -70.30510000
C      -47.32070000     -34.01470000     -71.53240000
C      -47.40690000     -34.74300000     -72.67660000
C      -46.37700000     -34.74320000     -70.56380000
H      -47.91200000     -34.51730000     -73.57870000
C      -45.78070000     -35.85720000     -71.15020000
C      -45.75650000     -34.46930000     -69.35260000
C      -44.79590000     -35.37110000     -68.96830000
S      -46.37650000     -36.13450000     -72.76340000
S      -44.47660000     -36.60910000     -70.23080000
H      -44.08920000     -35.30310000     -68.17630000
