40
Properties=species:S:1:pos:R:3 #=T CELL(abcABC):=T 1.889726e+02=T 90.00000=T Traj:=T positionsangstrom=T Step:=T 0=T Bead:=T pbc="F F F"
C      -42.50360000     -32.93140000     -71.50660000
C      -43.15510000     -31.74330000     -71.03380000
C      -44.20670000     -31.16990000     -71.83390000
C      -44.50110000     -31.71790000     -73.07100000
C      -43.89720000     -32.90160000     -73.50130000
C      -42.85210000     -33.41520000     -72.73190000
H      -41.91960000     -33.64900000     -70.79420000
H      -44.49720000     -30.13900000     -71.65370000
H      -44.28270000     -33.33620000     -74.36940000
H      -42.35560000     -34.37910000     -73.06340000
C      -45.43690000     -30.91980000     -73.98370000
H      -45.27050000     -31.01560000     -75.03050000
H      -45.31990000     -29.82320000     -73.80270000
C      -43.03620000     -31.05580000     -69.74090000
H      -41.98680000     -30.98110000     -69.41320000
H      -43.38230000     -30.03780000     -69.77560000
S      -47.23120000     -31.41380000     -73.65400000
S      -43.75930000     -31.92390000     -68.24250000
C      -47.50600000     -31.44720000     -71.74320000
H      -46.54740000     -31.16060000     -71.39630000
H      -48.24940000     -30.75820000     -71.43630000
C      -45.49660000     -32.11610000     -68.76240000
H      -45.50220000     -31.72620000     -69.82700000
H      -46.02300000     -31.40980000     -68.13690000
C      -46.15140000     -33.45960000     -68.55700000
H      -45.84440000     -33.74120000     -67.52060000
H      -47.22000000     -33.32500000     -68.67270000
C      -47.84610000     -32.84310000     -71.25730000
H      -48.86110000     -32.96540000     -71.66010000
H      -48.02430000     -32.91300000     -70.16270000
C      -47.09740000     -34.04280000     -71.72870000
C      -47.14730000     -34.54820000     -72.99410000
C      -46.23000000     -34.79540000     -70.83520000
H      -47.73980000     -34.35090000     -73.85350000
C      -45.83020000     -36.02570000     -71.36830000
C      -45.70260000     -34.58070000     -69.49980000
C      -44.78370000     -35.55270000     -69.11630000
S      -46.30480000     -36.04830000     -73.10400000
S      -44.67550000     -36.85120000     -70.38890000
H      -44.49620000     -35.69880000     -68.03800000
