40
Properties=species:S:1:pos:R:3 #=T CELL(abcABC):=T 1.889726e+02=T 90.00000=T Traj:=T positionsangstrom=T Step:=T 0=T Bead:=T pbc="F F F"
C      -48.49710000     -35.67260000     -72.57150000
C      -47.09940000     -35.90370000     -72.89470000
C      -46.20930000     -36.22410000     -71.91120000
C      -46.59240000     -36.26920000     -70.57870000
C      -47.94830000     -36.06320000     -70.24130000
C      -48.88120000     -35.89140000     -71.25560000
H      -49.32180000     -35.69340000     -73.36160000
H      -45.19590000     -36.59890000     -72.19230000
H      -48.20040000     -36.08480000     -69.15010000
H      -49.99780000     -35.92170000     -71.08320000
C      -45.55740000     -36.77690000     -69.58970000
H      -44.57410000     -37.00880000     -70.02540000
H      -45.91270000     -37.71970000     -69.22570000
C      -46.63270000     -35.80450000     -74.40720000
H      -46.67950000     -36.78370000     -74.82340000
H      -47.40230000     -35.30600000     -74.97250000
S      -45.32720000     -35.72780000     -68.02370000
S      -44.91510000     -35.28620000     -74.66560000
C      -45.33890000     -33.92010000     -68.29810000
H      -46.37150000     -33.56040000     -67.95740000
H      -44.77380000     -33.54160000     -67.47510000
C      -44.94060000     -33.48780000     -74.01400000
H      -45.91930000     -33.30790000     -73.61620000
H      -44.87430000     -32.82590000     -74.92940000
C      -43.83910000     -33.25980000     -72.96350000
H      -43.84610000     -34.04450000     -72.22090000
H      -42.84370000     -33.23620000     -73.43900000
C      -44.96170000     -33.48500000     -69.70540000
H      -45.52310000     -33.74960000     -70.59650000
H      -43.90590000     -33.79900000     -69.86980000
C      -44.79160000     -31.97480000     -69.90710000
C      -44.90050000     -31.06090000     -68.89430000
C      -44.29850000     -31.38980000     -71.12090000
H      -45.28460000     -31.23480000     -67.88690000
C      -44.05550000     -30.00780000     -70.95210000
C      -43.87260000     -31.79400000     -72.49750000
C      -43.49320000     -30.69340000     -73.25320000
S      -44.56030000     -29.42470000     -69.35320000
S      -43.76830000     -29.15450000     -72.40890000
H      -43.41290000     -30.62190000     -74.28770000
