40
Properties=species:S:1:pos:R:3 #=T CELL(abcABC):=T 1.889726e+02=T 90.00000=T Traj:=T positionsangstrom=T Step:=T 0=T Bead:=T pbc="F F F"
C      -47.34480000     -31.19650000     -71.01370000
C      -47.88840000     -32.18670000     -70.10690000
C      -47.20580000     -32.46950000     -68.94410000
C      -45.94690000     -31.86980000     -68.65190000
C      -45.41970000     -30.92250000     -69.61630000
C      -46.13570000     -30.55810000     -70.73650000
H      -47.90650000     -30.97360000     -71.95410000
H      -47.59280000     -33.35990000     -68.35910000
H      -44.59380000     -30.30590000     -69.39080000
H      -45.75130000     -29.89760000     -71.52800000
C      -45.18250000     -32.27930000     -67.39970000
H      -45.90340000     -32.39480000     -66.56250000
H      -44.45410000     -31.50830000     -67.15580000
C      -49.15200000     -32.92430000     -70.41010000
H      -49.33140000     -33.74600000     -69.64510000
H      -50.11220000     -32.37790000     -70.59220000
S      -44.18180000     -33.89090000     -67.59250000
S      -48.97790000     -33.69400000     -72.19080000
C      -43.06700000     -33.60930000     -69.05490000
H      -43.36460000     -32.65190000     -69.30320000
H      -42.05050000     -33.62620000     -68.67750000
C      -47.82870000     -35.24820000     -71.95310000
H      -47.82040000     -35.72920000     -72.92570000
H      -48.26090000     -36.04760000     -71.28420000
C      -46.34570000     -34.86190000     -71.57240000
H      -46.42740000     -34.07350000     -70.77510000
H      -45.91540000     -35.72980000     -71.12820000
C      -43.28490000     -34.72450000     -70.13080000
H      -44.31180000     -35.00030000     -70.11950000
H      -42.61810000     -35.57210000     -70.03810000
C      -43.09440000     -34.20390000     -71.53100000
C      -41.83350000     -33.84050000     -71.96080000
C      -44.09940000     -34.30310000     -72.58640000
H      -41.11540000     -33.46970000     -71.21780000
C      -43.53640000     -33.92020000     -73.78240000
C      -45.53170000     -34.47990000     -72.69370000
C      -46.02000000     -34.16970000     -73.94840000
S      -41.83650000     -33.45190000     -73.72230000
S      -44.67980000     -33.65840000     -74.99800000
H      -47.01200000     -34.19610000     -74.33900000
