40
Properties=species:S:1:pos:R:3 #=T CELL(abcABC):=T 1.889726e+02=T 90.00000=T Traj:=T positionsangstrom=T Step:=T 0=T Bead:=T pbc="F F F"
C      -47.29200000     -31.03530000     -71.39540000
C      -47.94980000     -31.85720000     -70.48950000
C      -47.36530000     -32.13820000     -69.20620000
C      -46.09770000     -31.57630000     -68.89910000
C      -45.48910000     -30.68360000     -69.76120000
C      -46.05810000     -30.46470000     -70.99870000
H      -47.62320000     -30.86600000     -72.39740000
H      -47.76380000     -32.89490000     -68.53890000
H      -44.41600000     -30.25220000     -69.62070000
H      -45.59950000     -29.71800000     -71.62930000
C      -45.45070000     -32.05830000     -67.59020000
H      -46.29920000     -32.20260000     -66.91090000
H      -44.70260000     -31.39010000     -67.14430000
C      -49.23430000     -32.59720000     -70.88460000
H      -49.65680000     -33.13380000     -70.02370000
H      -49.99190000     -31.84120000     -71.24880000
S      -44.79250000     -33.76960000     -67.82000000
S      -48.85430000     -33.81270000     -72.17140000
C      -43.75450000     -33.50510000     -69.31770000
H      -44.36330000     -32.90070000     -70.03970000
H      -42.91080000     -32.99520000     -69.00450000
C      -47.75880000     -35.09510000     -71.46120000
H      -47.78440000     -35.97240000     -72.12400000
H      -48.16310000     -35.27430000     -70.48240000
C      -46.21630000     -34.77200000     -71.27030000
H      -46.15450000     -33.86230000     -70.75680000
H      -45.86430000     -35.59420000     -70.66170000
C      -43.29390000     -34.80590000     -69.90460000
H      -43.98400000     -35.63300000     -69.68900000
H      -42.33420000     -35.21120000     -69.47690000
C      -42.90600000     -34.54450000     -71.36400000
C      -41.60250000     -34.29340000     -71.75290000
C      -43.86130000     -34.35320000     -72.39590000
H      -40.73180000     -34.47180000     -71.22560000
C      -43.32060000     -33.96540000     -73.65100000
C      -45.35760000     -34.55160000     -72.50520000
C      -45.81200000     -34.26520000     -73.73300000
S      -41.54060000     -33.81290000     -73.45650000
S      -44.50490000     -33.82230000     -74.86980000
H      -46.83380000     -34.20060000     -74.12870000
