40
Properties=species:S:1:pos:R:3 #=T CELL(abcABC):=T 1.889726e+02=T 90.00000=T Traj:=T positionsangstrom=T Step:=T 0=T Bead:=T pbc="F F F"
C      -43.15060000     -32.92120000     -70.21130000
C      -43.86280000     -31.75100000     -69.89830000
C      -44.41380000     -30.99760000     -70.99770000
C      -44.17330000     -31.33050000     -72.34160000
C      -43.40710000     -32.49340000     -72.61800000
C      -42.85560000     -33.25450000     -71.58360000
H      -42.84290000     -33.59970000     -69.46360000
H      -45.16940000     -30.20620000     -70.83440000
H      -43.06570000     -32.71120000     -73.61620000
H      -42.19300000     -34.11640000     -71.76250000
C      -44.71150000     -30.53860000     -73.52010000
H      -43.87850000     -30.23280000     -74.20480000
H      -45.22440000     -29.65020000     -73.22310000
C      -44.24920000     -31.35370000     -68.53300000
H      -43.43830000     -31.66030000     -67.83300000
H      -44.37140000     -30.21260000     -68.44440000
S      -45.96440000     -31.54980000     -74.38470000
S      -45.80760000     -32.06690000     -67.76210000
C      -47.18030000     -31.81940000     -73.04040000
H      -46.72680000     -31.49410000     -72.13580000
H      -48.06410000     -31.11970000     -73.22550000
C      -47.05630000     -32.23960000     -69.18430000
H      -46.62110000     -31.80140000     -70.05260000
H      -47.96930000     -31.72020000     -68.87970000
C      -47.48830000     -33.73730000     -69.51390000
H      -48.15140000     -34.09350000     -68.70380000
H      -48.14470000     -33.73390000     -70.41160000
C      -47.57870000     -33.31910000     -72.97580000
H      -47.99360000     -33.55960000     -73.95800000
H      -48.42280000     -33.49690000     -72.25390000
C      -46.44850000     -34.26650000     -72.63660000
C      -45.79590000     -34.84230000     -73.72150000
C      -46.03740000     -34.71700000     -71.37080000
H      -45.91490000     -34.61120000     -74.79660000
C      -45.11590000     -35.78900000     -71.56510000
C      -46.42320000     -34.63640000     -69.99600000
C      -45.74570000     -35.47950000     -69.15920000
S      -44.50740000     -35.96410000     -73.21960000
S      -44.61450000     -36.49910000     -70.06470000
H      -46.01390000     -35.76920000     -68.22900000
