40
Properties=species:S:1:pos:R:3 #=T CELL(abcABC):=T 1.889726e+02=T 90.00000=T Traj:=T positionsangstrom=T Step:=T 0=T Bead:=T pbc="F F F"
C      -46.95290000     -31.80840000     -70.25830000
C      -47.31150000     -32.99020000     -69.59050000
C      -46.57310000     -33.37810000     -68.48910000
C      -45.45520000     -32.69680000     -68.08960000
C      -45.03150000     -31.53060000     -68.77500000
C      -45.89860000     -31.07020000     -69.79090000
H      -47.52550000     -31.35200000     -71.09730000
H      -46.88330000     -34.31050000     -67.96360000
H      -44.12490000     -30.95330000     -68.53600000
H      -45.76850000     -30.11270000     -70.22020000
C      -44.58880000     -33.38210000     -67.05870000
H      -45.22680000     -33.88050000     -66.29030000
H      -44.04880000     -32.60880000     -66.52150000
C      -48.54580000     -33.70360000     -69.90810000
H      -48.54900000     -34.68270000     -69.51750000
H      -49.35250000     -33.08460000     -69.45340000
S      -43.35260000     -34.64930000     -67.73790000
S      -48.83160000     -33.87160000     -71.70340000
C      -42.90550000     -33.78560000     -69.38400000
H      -42.94360000     -32.68320000     -69.33350000
H      -41.83250000     -33.88880000     -69.64320000
C      -47.88000000     -35.46540000     -72.27030000
H      -48.28060000     -35.66930000     -73.25160000
H      -48.14940000     -36.24340000     -71.61030000
C      -46.29080000     -35.39960000     -72.28690000
H      -45.81860000     -35.12920000     -71.35560000
H      -45.90670000     -36.38920000     -72.37670000
C      -43.82090000     -34.22500000     -70.51660000
H      -44.85120000     -34.11390000     -70.28480000
H      -43.80220000     -35.33350000     -70.56690000
C      -43.61540000     -33.50870000     -71.85550000
C      -42.65420000     -32.47850000     -72.12620000
C      -44.52760000     -33.62600000     -73.01580000
H      -41.78710000     -32.15740000     -71.55430000
C      -44.12350000     -32.88140000     -74.10120000
C      -45.65330000     -34.45070000     -73.31780000
C      -46.06660000     -34.30800000     -74.62020000
S      -42.81280000     -31.76050000     -73.77260000
S      -45.14750000     -33.11100000     -75.54080000
H      -46.96890000     -34.70530000     -75.04350000
