40
Properties=species:S:1:pos:R:3 #=T CELL(abcABC):=T 1.889726e+02=T 90.00000=T Traj:=T positionsangstrom=T Step:=T 0=T Bead:=T pbc="F F F"
C      -46.09730000     -33.96650000     -67.12830000
C      -44.98400000     -33.49910000     -67.88990000
C      -45.16540000     -32.34430000     -68.67130000
C      -46.30120000     -31.56340000     -68.68110000
C      -47.41710000     -32.12010000     -68.01710000
C      -47.35210000     -33.33000000     -67.35080000
H      -45.98040000     -34.97090000     -66.53620000
H      -44.25440000     -31.89610000     -69.13110000
H      -48.34850000     -31.56460000     -68.20410000
H      -48.24990000     -33.74520000     -66.83380000
C      -46.47050000     -30.26830000     -69.28620000
H      -45.49960000     -29.77750000     -69.31900000
H      -47.16410000     -29.78720000     -68.64960000
C      -43.68240000     -34.24460000     -67.81490000
H      -42.84500000     -33.64670000     -68.26610000
H      -43.48220000     -34.51290000     -66.75880000
S      -47.37020000     -30.08090000     -70.94780000
S      -43.74170000     -35.88340000     -68.74700000
C      -46.58830000     -31.33360000     -72.03020000
H      -46.92790000     -30.95970000     -73.02900000
H      -45.50860000     -31.29090000     -71.96000000
C      -44.29850000     -35.34970000     -70.48610000
H      -45.39430000     -35.07580000     -70.31440000
H      -44.14280000     -36.22230000     -71.06860000
C      -43.60300000     -34.14290000     -71.01610000
H      -44.01460000     -33.30930000     -70.45090000
H      -42.56790000     -34.10590000     -70.73650000
C      -46.99700000     -32.76670000     -71.92510000
H      -48.04820000     -32.79410000     -72.16760000
H      -46.86310000     -33.18520000     -70.91580000
C      -46.24090000     -33.49830000     -73.05760000
C      -47.00500000     -33.64080000     -74.19460000
C      -44.86520000     -33.88600000     -73.27890000
H      -48.00110000     -33.36090000     -74.30820000
C      -44.70410000     -34.15070000     -74.64070000
C      -43.63050000     -34.07830000     -72.56430000
C      -42.60450000     -34.53810000     -73.25000000
S      -46.09990000     -34.02350000     -75.68730000
S      -42.98360000     -34.52790000     -75.02880000
H      -41.57460000     -34.80400000     -72.98500000
