40
Properties=species:S:1:pos:R:3 #=T CELL(abcABC):=T 1.889726e+02=T 90.00000=T Traj:=T positionsangstrom=T Step:=T 0=T Bead:=T pbc="F F F"
C      -44.59090000     -32.70250000     -68.85570000
C      -45.05900000     -31.61340000     -69.60730000
C      -44.34770000     -31.20100000     -70.70200000
C      -43.15510000     -31.83420000     -71.07620000
C      -42.67610000     -32.93150000     -70.31440000
C      -43.44880000     -33.41280000     -69.25550000
H      -45.15520000     -33.08960000     -68.00490000
H      -44.76230000     -30.48960000     -71.30870000
H      -41.78350000     -33.50140000     -70.62800000
H      -43.13730000     -34.28210000     -68.72750000
C      -42.57330000     -31.27310000     -72.38170000
H      -41.51330000     -30.97190000     -72.39670000
H      -43.21870000     -30.37000000     -72.56160000
C      -46.30280000     -30.83850000     -69.10240000
H      -46.34980000     -31.02880000     -67.96070000
H      -46.18860000     -29.77790000     -69.37370000
S      -42.98010000     -32.37520000     -73.81960000
S      -47.87610000     -31.61350000     -69.67250000
C      -44.78520000     -32.02310000     -74.10150000
H      -45.12250000     -31.27550000     -73.29640000
H      -44.79740000     -31.32570000     -74.98600000
C      -47.66590000     -31.69260000     -71.48660000
H      -46.60230000     -31.50340000     -71.70870000
H      -48.30650000     -30.95030000     -72.05050000
C      -48.21540000     -33.12910000     -71.85800000
H      -49.21650000     -33.21030000     -71.54570000
H      -48.28270000     -33.21140000     -72.95430000
C      -45.71330000     -33.22340000     -74.06780000
H      -45.69610000     -33.75100000     -75.05890000
H      -46.70670000     -32.88550000     -73.91620000
C      -45.44130000     -34.34170000     -73.06640000
C      -44.32380000     -35.09180000     -73.18960000
C      -46.10370000     -34.69670000     -71.84080000
H      -43.57830000     -35.03300000     -73.91810000
C      -45.52960000     -35.74660000     -71.11380000
C      -47.32350000     -34.28660000     -71.28930000
C      -47.64020000     -34.86990000     -70.05560000
S      -44.10020000     -36.30880000     -71.92680000
S      -46.40040000     -36.07680000     -69.57850000
H      -48.57990000     -34.65390000     -69.49810000
