40
Properties=species:S:1:pos:R:3 #=T CELL(abcABC):=T 1.889726e+02=T 90.00000=T Traj:=T positionsangstrom=T Step:=T 0=T Bead:=T pbc="F F F"
C      -48.49870000     -35.81720000     -72.33210000
C      -47.18690000     -35.70240000     -72.78690000
C      -46.14890000     -35.98780000     -71.89730000
C      -46.42230000     -36.34710000     -70.57740000
C      -47.78550000     -36.51510000     -70.18690000
C      -48.84680000     -36.16160000     -71.03600000
H      -49.26560000     -35.72000000     -73.00160000
H      -45.17080000     -36.01670000     -72.30720000
H      -48.04430000     -36.88230000     -69.23700000
H      -49.83660000     -36.08700000     -70.63760000
C      -45.25490000     -36.70330000     -69.52320000
H      -44.32300000     -36.39480000     -69.97320000
H      -45.19210000     -37.73980000     -69.22390000
C      -46.94110000     -35.45660000     -74.23570000
H      -47.33900000     -36.22330000     -74.85420000
H      -47.44880000     -34.53890000     -74.59560000
S      -45.49340000     -35.64640000     -67.95620000
S      -45.23350000     -35.13190000     -74.82900000
C      -45.64940000     -33.95880000     -68.56670000
H      -46.54890000     -34.02900000     -69.24660000
H      -45.86650000     -33.42520000     -67.53880000
C      -44.84600000     -33.34750000     -74.32760000
H      -45.81060000     -32.79570000     -74.15370000
H      -44.31620000     -32.94780000     -75.14760000
C      -43.94860000     -33.28950000     -73.04050000
H      -44.32790000     -33.93830000     -72.26130000
H      -43.01350000     -33.64600000     -73.33800000
C      -44.44650000     -33.43600000     -69.36020000
H      -44.28540000     -34.12830000     -70.24730000
H      -43.56940000     -33.48810000     -68.67020000
C      -44.51040000     -32.03140000     -69.82800000
C      -44.62900000     -31.10070000     -68.82170000
C      -44.20280000     -31.44240000     -71.12150000
H      -45.02520000     -31.37110000     -67.87070000
C      -44.22540000     -30.04340000     -71.02060000
C      -43.85950000     -31.87060000     -72.48000000
C      -43.63560000     -30.78870000     -73.29570000
S      -44.42810000     -29.46400000     -69.35990000
S      -43.78370000     -29.25410000     -72.55100000
H      -43.34070000     -30.92200000     -74.38920000
