40
Properties=species:S:1:pos:R:3 #=T CELL(abcABC):=T 1.889726e+02=T 90.00000=T Traj:=T positionsangstrom=T Step:=T 0=T Bead:=T pbc="F F F"
C      -46.09830000     -33.98870000     -67.30880000
C      -44.96470000     -33.41950000     -67.97650000
C      -45.06860000     -32.15540000     -68.51060000
C      -46.26470000     -31.51810000     -68.52420000
C      -47.37190000     -32.06870000     -67.86590000
C      -47.27430000     -33.30260000     -67.18850000
H      -45.85500000     -34.95800000     -66.66620000
H      -44.19230000     -31.76190000     -69.01530000
H      -48.28770000     -31.46160000     -67.79200000
H      -48.17580000     -33.69560000     -66.59010000
C      -46.32100000     -30.21220000     -69.38010000
H      -45.31800000     -30.11920000     -69.82550000
H      -46.36690000     -29.19410000     -68.89590000
C      -43.69040000     -34.29440000     -67.90380000
H      -42.80250000     -33.80570000     -68.31240000
H      -43.53050000     -34.58620000     -66.84330000
S      -47.48460000     -30.30780000     -70.71750000
S      -43.84780000     -35.97570000     -68.80630000
C      -46.47330000     -31.28570000     -71.91170000
H      -46.73050000     -30.87160000     -72.88960000
H      -45.40500000     -31.09000000     -71.80950000
C      -44.30800000     -35.47530000     -70.53110000
H      -45.39450000     -35.40610000     -70.67510000
H      -44.03900000     -36.31500000     -71.20610000
C      -43.67170000     -34.15990000     -70.98570000
H      -44.03470000     -33.28600000     -70.39910000
H      -42.60160000     -34.27590000     -70.78620000
C      -46.78340000     -32.77620000     -71.85860000
H      -47.85480000     -32.97250000     -71.77900000
H      -46.37020000     -33.10520000     -70.91740000
C      -46.30800000     -33.44150000     -73.12640000
C      -47.00210000     -33.50190000     -74.32400000
C      -44.92170000     -33.92110000     -73.36730000
H      -48.02630000     -33.23440000     -74.43700000
C      -44.69190000     -34.18320000     -74.73470000
C      -43.69250000     -34.04150000     -72.57180000
C      -42.61870000     -34.27380000     -73.31970000
S      -46.10360000     -34.06770000     -75.76500000
S      -43.01310000     -34.44300000     -75.07680000
H      -41.55320000     -34.37100000     -72.97380000
