40
Properties=species:S:1:pos:R:3 #=T CELL(abcABC):=T 1.889726e+02=T 90.00000=T Traj:=T positionsangstrom=T Step:=T 0=T Bead:=T pbc="F F F"
C      -45.81350000     -32.52740000     -68.75290000
C      -45.74760000     -31.41150000     -69.62720000
C      -44.48590000     -31.15140000     -70.21460000
C      -43.39490000     -32.03910000     -70.11690000
C      -43.54080000     -33.15980000     -69.30870000
C      -44.71620000     -33.38250000     -68.63080000
H      -46.79540000     -32.69000000     -68.26590000
H      -44.42760000     -30.26670000     -70.87750000
H      -42.73790000     -33.84210000     -69.35130000
H      -44.79710000     -34.35300000     -68.10160000
C      -42.11700000     -31.72330000     -70.82960000
H      -41.23310000     -31.82350000     -70.20700000
H      -42.23300000     -30.71920000     -71.10710000
C      -46.94460000     -30.47190000     -69.90440000
H      -47.47190000     -30.25620000     -68.95320000
H      -46.50740000     -29.60600000     -70.30450000
S      -41.82350000     -32.76830000     -72.28590000
S      -48.08000000     -31.17850000     -71.23770000
C      -43.18410000     -32.57700000     -73.47740000
H      -43.91510000     -31.77910000     -73.23400000
H      -42.72660000     -32.11890000     -74.37020000
C      -46.75010000     -31.46180000     -72.47750000
H      -45.83570000     -31.72490000     -71.98850000
H      -46.63990000     -30.51450000     -72.97430000
C      -47.07280000     -32.70460000     -73.42300000
H      -48.06490000     -32.61970000     -73.89480000
H      -46.38520000     -32.78600000     -74.37400000
C      -43.81490000     -33.94060000     -73.82830000
H      -43.01260000     -34.58380000     -74.21790000
H      -44.47850000     -33.82460000     -74.69370000
C      -44.55090000     -34.63960000     -72.68590000
C      -43.76410000     -35.47400000     -71.97300000
C      -45.91070000     -34.63610000     -72.22770000
H      -42.62370000     -35.53750000     -72.07030000
C      -46.16620000     -35.65470000     -71.24930000
C      -47.08180000     -33.95070000     -72.56640000
C      -48.22250000     -34.50090000     -71.94960000
S      -44.57690000     -36.36630000     -70.69320000
S      -47.79210000     -35.81250000     -70.79420000
H      -49.24320000     -34.24000000     -71.92930000
