40
Properties=species:S:1:pos:R:3 #=T CELL(abcABC):=T 1.889726e+02=T 90.00000=T Traj:=T positionsangstrom=T Step:=T 0=T Bead:=T pbc="F F F"
C      -45.73670000     -32.58510000     -68.74650000
C      -45.81710000     -31.43410000     -69.54190000
C      -44.74250000     -31.14890000     -70.41370000
C      -43.56170000     -31.91580000     -70.41960000
C      -43.50180000     -33.08850000     -69.61860000
C      -44.58740000     -33.35480000     -68.77620000
H      -46.53960000     -32.87410000     -68.07560000
H      -44.67700000     -30.15730000     -70.86520000
H      -42.57310000     -33.78540000     -69.69140000
H      -44.63360000     -34.27460000     -68.22870000
C      -42.34350000     -31.55090000     -71.26860000
H      -41.42980000     -31.75500000     -70.58030000
H      -42.27260000     -30.49860000     -71.54250000
C      -46.97950000     -30.47430000     -69.75890000
H      -47.35620000     -30.14840000     -68.85840000
H      -46.54220000     -29.58780000     -70.28620000
S      -42.28460000     -32.65790000     -72.73180000
S      -48.31120000     -31.00590000     -70.92300000
C      -43.91750000     -32.37510000     -73.53130000
H      -44.60050000     -32.03640000     -72.80190000
H      -43.89960000     -31.66600000     -74.39930000
C      -47.28100000     -31.40580000     -72.41710000
H      -46.25160000     -31.17500000     -72.11270000
H      -47.63240000     -30.78580000     -73.28610000
C      -47.44930000     -32.91820000     -72.78900000
H      -48.55710000     -33.01520000     -72.84230000
H      -47.11130000     -33.09860000     -73.84500000
C      -44.34040000     -33.71910000     -74.12900000
H      -43.53900000     -34.12570000     -74.75080000
H      -45.27260000     -33.54090000     -74.64680000
C      -44.59780000     -34.71410000     -73.02060000
C      -43.68720000     -35.73150000     -72.77740000
C      -45.74090000     -34.74720000     -72.13670000
H      -42.78080000     -35.86560000     -73.29290000
C      -45.61550000     -35.79180000     -71.21270000
C      -46.94960000     -33.99810000     -71.91630000
C      -47.67930000     -34.44170000     -70.82650000
S      -44.10050000     -36.65350000     -71.32320000
S      -46.95040000     -35.84650000     -70.02670000
H      -48.47500000     -33.82480000     -70.32530000
