40
Properties=species:S:1:pos:R:3 #=T CELL(abcABC):=T 1.889726e+02=T 90.00000=T Traj:=T positionsangstrom=T Step:=T 0=T Bead:=T pbc="F F F"
C      -45.77960000     -32.32800000     -68.97690000
C      -45.53020000     -31.22940000     -69.80870000
C      -44.20620000     -31.00600000     -70.25310000
C      -43.17820000     -31.96140000     -70.07960000
C      -43.54890000     -33.14140000     -69.42660000
C      -44.75230000     -33.26920000     -68.71950000
H      -46.78800000     -32.66780000     -68.63920000
H      -44.08380000     -30.12780000     -70.88790000
H      -42.73040000     -33.89070000     -69.32030000
H      -44.93920000     -34.09600000     -68.10160000
C      -41.78760000     -31.72000000     -70.57130000
H      -41.12590000     -32.05640000     -69.78880000
H      -41.56850000     -30.69020000     -70.89250000
C      -46.62810000     -30.28820000     -70.27250000
H      -47.25170000     -30.13890000     -69.41150000
H      -46.26040000     -29.32730000     -70.53510000
S      -41.59070000     -32.87120000     -71.99760000
S      -47.88960000     -30.99410000     -71.53570000
C      -43.18030000     -32.59430000     -73.07520000
H      -43.86930000     -31.88070000     -72.60990000
H      -42.69590000     -32.22420000     -73.98660000
C      -46.75610000     -31.57040000     -72.89190000
H      -45.81390000     -31.97600000     -72.51570000
H      -46.39770000     -30.89630000     -73.64930000
C      -47.17830000     -32.83600000     -73.60270000
H      -48.14430000     -32.83600000     -74.16550000
H      -46.26130000     -32.97500000     -74.19930000
C      -43.81930000     -33.89170000     -73.46060000
H      -42.98310000     -34.46270000     -73.87780000
H      -44.47900000     -33.73310000     -74.27060000
C      -44.57240000     -34.67020000     -72.36820000
C      -43.88070000     -35.54800000     -71.61670000
C      -46.05170000     -34.68560000     -72.14590000
H      -42.86160000     -35.79480000     -71.72290000
C      -46.34890000     -35.58660000     -71.18020000
C      -47.26200000     -34.03900000     -72.63280000
C      -48.42850000     -34.58640000     -72.12670000
S      -44.91550000     -36.50950000     -70.49520000
S      -48.06810000     -35.89910000     -70.99380000
H      -49.42710000     -34.22390000     -72.38240000
