40
Properties=species:S:1:pos:R:3 #=T CELL(abcABC):=T 1.889726e+02=T 90.00000=T Traj:=T positionsangstrom=T Step:=T 0=T Bead:=T pbc="F F F"
C      -45.55980000     -32.45690000     -68.74180000
C      -45.59590000     -31.31970000     -69.54810000
C      -44.64330000     -31.07950000     -70.52060000
C      -43.52850000     -31.97260000     -70.60810000
C      -43.50950000     -33.15730000     -69.94740000
C      -44.53270000     -33.39240000     -68.99600000
H      -46.22080000     -32.53800000     -67.90530000
H      -44.70160000     -30.13530000     -71.04550000
H      -42.78970000     -33.84710000     -70.29470000
H      -44.55950000     -34.34380000     -68.48280000
C      -42.51020000     -31.49610000     -71.60880000
H      -41.50820000     -31.32000000     -71.20230000
H      -42.84600000     -30.41340000     -71.87630000
C      -46.78040000     -30.39750000     -69.38520000
H      -47.15170000     -30.23030000     -68.28110000
H      -46.57440000     -29.38350000     -69.59570000
S      -42.32860000     -32.50560000     -73.15270000
S      -48.25190000     -30.99270000     -70.32690000
C      -44.07300000     -32.36150000     -73.93590000
H      -44.77750000     -31.72310000     -73.26820000
H      -43.81980000     -31.83870000     -74.84960000
C      -47.47370000     -31.65510000     -71.84320000
H      -46.39070000     -31.56960000     -71.77200000
H      -47.63990000     -30.98170000     -72.68540000
C      -47.79900000     -32.99960000     -72.41200000
H      -48.90870000     -33.11660000     -72.43540000
H      -47.41550000     -33.03380000     -73.47460000
C      -44.78890000     -33.67270000     -74.24420000
H      -44.35130000     -34.20300000     -75.15230000
H      -45.80020000     -33.41440000     -74.68150000
C      -44.91210000     -34.70820000     -73.12500000
C      -43.88810000     -35.63790000     -73.09270000
C      -45.87330000     -34.75300000     -72.06600000
H      -43.17080000     -35.80540000     -73.85300000
C      -45.44700000     -35.74550000     -71.23910000
C      -47.16380000     -34.11850000     -71.62570000
C      -47.59770000     -34.70800000     -70.44100000
S      -44.01600000     -36.60060000     -71.65760000
S      -46.52620000     -35.96400000     -69.82550000
H      -48.50550000     -34.70170000     -69.95460000
