40
Properties=species:S:1:pos:R:3 #=T CELL(abcABC):=T 1.889726e+02=T 90.00000=T Traj:=T positionsangstrom=T Step:=T 0=T Bead:=T pbc="F F F"
C      -46.95210000     -34.71500000     -69.49370000
C      -45.74210000     -35.37860000     -69.55520000
C      -44.60340000     -34.77710000     -69.00010000
C      -44.72760000     -33.46470000     -68.38370000
C      -45.91040000     -32.81030000     -68.43590000
C      -46.99000000     -33.36320000     -69.13370000
H      -47.85180000     -35.12310000     -70.03710000
H      -43.61690000     -35.26330000     -69.12820000
H      -46.02150000     -31.79560000     -67.98070000
H      -47.87680000     -32.72680000     -69.13180000
C      -43.50680000     -32.95810000     -67.70600000
H      -43.08700000     -33.90700000     -67.25360000
H      -43.66190000     -32.35740000     -66.80430000
C      -45.50660000     -36.78110000     -70.13540000
H      -44.42560000     -37.03230000     -70.12080000
H      -46.19790000     -37.40280000     -69.55780000
S      -42.15610000     -32.26580000     -68.70360000
S      -46.21970000     -37.01260000     -71.91020000
C      -43.09610000     -31.35330000     -69.96130000
H      -43.99320000     -30.93990000     -69.38260000
H      -42.54360000     -30.43030000     -70.26450000
C      -44.78690000     -36.47660000     -72.85960000
H      -44.99420000     -36.54280000     -73.90730000
H      -43.90810000     -37.06030000     -72.66810000
C      -44.48050000     -34.97320000     -72.65580000
H      -44.25640000     -34.74690000     -71.57310000
H      -43.55950000     -34.83810000     -73.23550000
C      -43.42220000     -32.11610000     -71.23370000
H      -43.34420000     -33.20760000     -71.01760000
H      -42.56520000     -31.90390000     -71.87510000
C      -44.61470000     -31.70660000     -72.07700000
C      -45.05530000     -30.39270000     -72.13830000
C      -45.44940000     -32.49980000     -72.93440000
H      -44.84610000     -29.54110000     -71.48410000
C      -46.47840000     -31.73980000     -73.53690000
C      -45.51210000     -33.95390000     -73.21130000
C      -46.55010000     -34.20220000     -74.06020000
S      -46.51800000     -30.12970000     -73.02630000
S      -47.51750000     -32.78690000     -74.54580000
H      -46.70370000     -35.14450000     -74.69520000
