40
Properties=species:S:1:pos:R:3 #=T CELL(abcABC):=T 1.889726e+02=T 90.00000=T Traj:=T positionsangstrom=T Step:=T 0=T Bead:=T pbc="F F F"
C      -48.01630000     -33.33980000     -67.41410000
C      -47.95120000     -33.58970000     -68.84480000
C      -47.16590000     -34.60520000     -69.35110000
C      -46.39420000     -35.37000000     -68.48700000
C      -46.33090000     -35.02540000     -67.18120000
C      -47.18070000     -34.04860000     -66.60410000
H      -48.75960000     -32.72010000     -66.94190000
H      -47.16670000     -34.64570000     -70.41910000
H      -45.61280000     -35.58140000     -66.55830000
H      -47.14860000     -33.91340000     -65.53360000
C      -45.49090000     -36.47270000     -68.98140000
H      -45.71450000     -36.73160000     -69.99460000
H      -45.61330000     -37.34140000     -68.34200000
C      -48.66500000     -32.66300000     -69.82470000
H      -48.69680000     -33.15290000     -70.81130000
H      -49.71940000     -32.45560000     -69.55150000
S      -43.68520000     -35.95710000     -69.27980000
S      -47.77060000     -30.97600000     -69.74190000
C      -43.94790000     -35.25780000     -70.91960000
H      -43.67800000     -36.05160000     -71.73350000
H      -44.98430000     -35.09250000     -71.14980000
C      -47.02700000     -31.00450000     -71.44410000
H      -46.86990000     -29.99560000     -71.76850000
H      -47.71030000     -31.41780000     -72.18850000
C      -45.69360000     -31.72100000     -71.47690000
H      -45.02410000     -31.06730000     -71.04050000
H      -45.69260000     -32.53270000     -70.79450000
C      -43.13510000     -33.91230000     -71.15940000
H      -42.03120000     -33.87640000     -70.84910000
H      -43.56280000     -33.08410000     -70.55470000
C      -43.18740000     -33.67270000     -72.67490000
C      -42.19790000     -34.08520000     -73.51660000
C      -44.13190000     -32.83030000     -73.31370000
H      -41.36620000     -34.62700000     -73.12820000
C      -43.84980000     -32.80280000     -74.70280000
C      -45.21910000     -32.00370000     -72.88770000
C      -45.73170000     -31.30750000     -73.98330000
S      -42.43400000     -33.72300000     -75.16690000
S      -44.84490000     -31.68050000     -75.54900000
H      -46.55230000     -30.57290000     -74.01100000
