40
Properties=species:S:1:pos:R:3 #=T CELL(abcABC):=T 1.889726e+02=T 90.00000=T Traj:=T positionsangstrom=T Step:=T 0=T Bead:=T pbc="F F F"
C      -47.03750000     -34.65700000     -69.74580000
C      -45.81240000     -35.43230000     -69.68090000
C      -44.66460000     -34.80970000     -69.09980000
C      -44.78500000     -33.59800000     -68.35700000
C      -45.99060000     -32.88130000     -68.45920000
C      -47.10680000     -33.46420000     -69.05430000
H      -47.92310000     -35.03160000     -70.35380000
H      -43.69690000     -35.22260000     -69.34110000
H      -46.10380000     -31.97560000     -67.89250000
H      -48.02320000     -32.91450000     -69.30090000
C      -43.62450000     -33.00350000     -67.65120000
H      -42.77200000     -33.61330000     -67.67390000
H      -43.94090000     -32.84960000     -66.65740000
C      -45.80940000     -36.82990000     -70.38660000
H      -45.01400000     -37.45160000     -69.98870000
H      -46.73110000     -37.42390000     -70.09460000
S      -43.14740000     -31.25550000     -68.09000000
S      -45.76140000     -36.91900000     -72.26030000
C      -44.03340000     -30.85630000     -69.62800000
H      -45.13670000     -30.88600000     -69.50400000
H      -43.76380000     -29.82990000     -69.81180000
C      -44.06960000     -36.34700000     -72.60790000
H      -43.81060000     -36.85660000     -73.64470000
H      -43.34190000     -36.78460000     -71.88850000
C      -43.80340000     -34.86990000     -72.62920000
H      -43.57410000     -34.52140000     -71.58120000
H      -42.90870000     -34.75430000     -73.23450000
C      -43.65840000     -31.68770000     -70.82660000
H      -43.38300000     -32.68790000     -70.52190000
H      -42.75680000     -31.23190000     -71.30420000
C      -44.77110000     -31.65350000     -71.89510000
C      -45.56320000     -30.49310000     -71.95350000
C      -45.24460000     -32.69900000     -72.83260000
H      -45.44010000     -29.61080000     -71.34750000
C      -46.32710000     -32.18900000     -73.62430000
C      -44.82300000     -33.97650000     -73.32400000
C      -45.63360000     -34.47340000     -74.36620000
S      -46.86560000     -30.62220000     -73.17070000
S      -46.85730000     -33.32860000     -74.84890000
H      -45.58400000     -35.44230000     -74.76550000
