40
Properties=species:S:1:pos:R:3 #=T CELL(abcABC):=T 1.889726e+02=T 90.00000=T Traj:=T positionsangstrom=T Step:=T 0=T Bead:=T pbc="F F F"
C      -47.54710000     -33.10700000     -67.25430000
C      -47.62080000     -33.45720000     -68.58330000
C      -47.06160000     -34.63800000     -69.01520000
C      -46.28610000     -35.44860000     -68.18460000
C      -46.14090000     -35.09950000     -66.82280000
C      -46.82270000     -33.94680000     -66.37320000
H      -48.12300000     -32.28590000     -66.84460000
H      -47.11150000     -34.83730000     -70.11730000
H      -45.43240000     -35.70650000     -66.27420000
H      -46.79420000     -33.64960000     -65.35210000
C      -45.56910000     -36.65430000     -68.86680000
H      -46.19000000     -36.93790000     -69.70830000
H      -45.40620000     -37.47520000     -68.16370000
C      -48.48510000     -32.66540000     -69.53180000
H      -48.51300000     -33.21210000     -70.51720000
H      -49.49250000     -32.56490000     -69.08440000
S      -43.90630000     -36.02570000     -69.45640000
S      -47.95630000     -30.95530000     -69.91620000
C      -44.34860000     -34.99420000     -70.99270000
H      -44.37330000     -35.61210000     -71.82490000
H      -45.22890000     -34.42660000     -70.71740000
C      -46.99750000     -31.03690000     -71.51180000
H      -46.65800000     -29.99820000     -71.66260000
H      -47.64240000     -31.41000000     -72.31870000
C      -45.79840000     -32.00420000     -71.60140000
H      -45.05140000     -31.78760000     -70.86570000
H      -46.21950000     -32.93850000     -71.35620000
C      -43.15560000     -34.09030000     -71.22990000
H      -42.25750000     -34.62440000     -71.00740000
H      -43.21540000     -33.13620000     -70.65250000
C      -43.16340000     -33.71340000     -72.74790000
C      -42.25500000     -34.21150000     -73.61500000
C      -44.13680000     -32.85050000     -73.44080000
H      -41.44200000     -34.90440000     -73.36000000
C      -43.78630000     -32.66910000     -74.77800000
C      -45.24930000     -32.04740000     -72.98520000
C      -45.79270000     -31.39470000     -74.05410000
S      -42.34180000     -33.58440000     -75.19850000
S      -44.94640000     -31.61010000     -75.65500000
H      -46.61540000     -30.70860000     -74.04630000
