40
Properties=species:S:1:pos:R:3 #=T CELL(abcABC):=T 1.889726e+02=T 90.00000=T Traj:=T positionsangstrom=T Step:=T 0=T Bead:=T pbc="F F F"
C      -47.11580000     -34.75590000     -69.86300000
C      -45.92150000     -35.49000000     -69.90060000
C      -44.76260000     -34.92920000     -69.27610000
C      -44.80590000     -33.66750000     -68.65770000
C      -46.02240000     -33.00670000     -68.51770000
C      -47.15510000     -33.57070000     -69.10320000
H      -48.03560000     -35.05840000     -70.39020000
H      -43.89570000     -35.59510000     -69.03680000
H      -46.10330000     -32.15510000     -67.94640000
H      -48.16760000     -33.14150000     -69.05020000
C      -43.52890000     -33.20530000     -67.94540000
H      -42.61620000     -33.67000000     -68.42720000
H      -43.52630000     -33.74100000     -66.91020000
C      -45.70470000     -36.87790000     -70.41690000
H      -44.73700000     -37.24660000     -69.97010000
H      -46.51920000     -37.52780000     -70.21170000
S      -43.37140000     -31.29910000     -67.95160000
S      -45.54150000     -36.90040000     -72.27200000
C      -43.93140000     -30.72670000     -69.62660000
H      -45.02470000     -30.55220000     -69.59230000
H      -43.48770000     -29.73000000     -69.74990000
C      -43.86670000     -36.22140000     -72.66970000
H      -43.66580000     -36.53170000     -73.66180000
H      -43.23540000     -36.67780000     -71.96840000
C      -43.81790000     -34.73000000     -72.45930000
H      -43.85080000     -34.41130000     -71.45160000
H      -42.75930000     -34.38180000     -72.74020000
C      -43.67370000     -31.67470000     -70.81210000
H      -43.74250000     -32.69840000     -70.49170000
H      -42.65960000     -31.56840000     -71.26770000
C      -44.82360000     -31.52450000     -71.82540000
C      -45.63540000     -30.42090000     -71.94770000
C      -45.25710000     -32.59000000     -72.75050000
H      -45.45990000     -29.56980000     -71.32530000
C      -46.30660000     -32.15920000     -73.54900000
C      -44.82900000     -33.87520000     -73.14830000
C      -45.60130000     -34.43060000     -74.15910000
S      -46.91370000     -30.58730000     -73.19260000
S      -46.83720000     -33.34820000     -74.76200000
H      -45.38370000     -35.30010000     -74.78440000
