40
Properties=species:S:1:pos:R:3 #=T CELL(abcABC):=T 1.889726e+02=T 90.00000=T Traj:=T positionsangstrom=T Step:=T 0=T Bead:=T pbc="F F F"
C      -46.89020000     -34.75060000     -69.77240000
C      -45.54910000     -35.27090000     -69.43320000
C      -44.76670000     -34.55260000     -68.56660000
C      -45.22420000     -33.30660000     -68.00960000
C      -46.43490000     -32.74300000     -68.43630000
C      -47.26130000     -33.48770000     -69.35810000
H      -47.54630000     -35.17330000     -70.44810000
H      -43.70250000     -34.83700000     -68.55410000
H      -46.79670000     -31.79550000     -68.09630000
H      -48.25980000     -33.07570000     -69.55660000
C      -44.04470000     -32.54190000     -67.31050000
H      -43.64700000     -33.08660000     -66.45200000
H      -44.30410000     -31.52630000     -67.03620000
C      -45.03180000     -36.51520000     -70.08480000
H      -43.93630000     -36.61220000     -70.28200000
H      -45.25510000     -37.36640000     -69.51520000
S      -42.57090000     -32.23570000     -68.50120000
S      -45.70790000     -37.01310000     -71.77130000
C      -43.32780000     -31.36150000     -69.90480000
H      -44.24920000     -30.88510000     -69.50920000
H      -42.67160000     -30.54930000     -70.24990000
C      -44.35410000     -36.36860000     -72.89910000
H      -44.61950000     -36.80970000     -73.89660000
H      -43.32570000     -36.81090000     -72.67400000
C      -44.14790000     -34.85980000     -73.02970000
H      -43.82530000     -34.51190000     -72.06960000
H      -43.36350000     -34.66740000     -73.78330000
C      -43.66230000     -32.21410000     -71.09960000
H      -43.82320000     -33.23800000     -70.71700000
H      -42.77050000     -32.24550000     -71.71270000
C      -44.80240000     -31.73970000     -71.98610000
C      -45.33570000     -30.51740000     -71.92210000
C      -45.47940000     -32.63630000     -72.96590000
H      -45.18870000     -29.69990000     -71.23980000
C      -46.47480000     -31.92090000     -73.59700000
C      -45.29640000     -34.02660000     -73.46510000
C      -46.08160000     -34.26390000     -74.52870000
S      -46.64580000     -30.28650000     -73.08890000
S      -47.19680000     -32.93860000     -74.85210000
H      -46.08460000     -35.17300000     -75.13680000
