40
Properties=species:S:1:pos:R:3 #=T CELL(abcABC):=T 1.889726e+02=T 90.00000=T Traj:=T positionsangstrom=T Step:=T 0=T Bead:=T pbc="F F F"
C      -46.59300000     -35.49250000     -69.59370000
C      -45.20250000     -35.36900000     -69.41930000
C      -44.67290000     -34.46640000     -68.50660000
C      -45.54430000     -33.51780000     -67.93810000
C      -46.94220000     -33.63830000     -68.09600000
C      -47.48360000     -34.62310000     -68.90140000
H      -46.96400000     -36.32670000     -70.18260000
H      -43.63630000     -34.25840000     -68.43810000
H      -47.49150000     -32.90510000     -67.55870000
H      -48.55310000     -34.69350000     -69.01530000
C      -44.91490000     -32.43990000     -67.07310000
H      -44.40350000     -32.79910000     -66.19800000
H      -45.71440000     -31.75920000     -66.77140000
C      -44.25550000     -36.38760000     -69.97430000
H      -43.27270000     -35.88550000     -70.08110000
H      -44.21860000     -37.33120000     -69.34460000
S      -43.75430000     -31.44970000     -68.16900000
S      -44.72990000     -37.00390000     -71.75590000
C      -44.70000000     -31.07750000     -69.72420000
H      -45.65230000     -31.57340000     -69.68550000
H      -44.94540000     -30.02180000     -69.70460000
C      -43.53040000     -36.08850000     -72.91090000
H      -43.91870000     -36.23860000     -74.00070000
H      -42.47810000     -36.48250000     -72.76560000
C      -43.73610000     -34.56320000     -72.66650000
H      -43.59640000     -34.37810000     -71.48390000
H      -42.85840000     -34.06310000     -73.09660000
C      -44.00870000     -31.50660000     -70.99980000
H      -43.76060000     -32.53520000     -70.84030000
H      -42.99210000     -31.05070000     -70.99550000
C      -44.80200000     -31.39740000     -72.27950000
C      -45.43210000     -30.22880000     -72.63830000
C      -45.24410000     -32.51740000     -73.15850000
H      -45.22840000     -29.33400000     -72.12880000
C      -46.17900000     -32.08440000     -74.03110000
C      -45.00170000     -33.95990000     -73.22790000
C      -45.87970000     -34.55100000     -74.12400000
S      -46.57390000     -30.37830000     -73.97250000
S      -47.00840000     -33.35520000     -74.86480000
H      -45.94430000     -35.63320000     -74.36660000
