40
Properties=species:S:1:pos:R:3 #=T CELL(abcABC):=T 1.889726e+02=T 90.00000=T Traj:=T positionsangstrom=T Step:=T 0=T Bead:=T pbc="F F F"
C      -46.62010000     -35.43400000     -69.71030000
C      -45.23180000     -35.47850000     -69.55210000
C      -44.57580000     -34.54380000     -68.73270000
C      -45.32540000     -33.58160000     -68.03420000
C      -46.74030000     -33.57410000     -68.13130000
C      -47.40110000     -34.49670000     -68.95520000
H      -47.07130000     -35.99740000     -70.53470000
H      -43.48370000     -34.55620000     -68.53150000
H      -47.20620000     -32.82750000     -67.57900000
H      -48.49710000     -34.57860000     -69.04110000
C      -44.65410000     -32.49790000     -67.25370000
H      -43.88170000     -32.88210000     -66.56820000
H      -45.37150000     -32.02820000     -66.56490000
C      -44.55210000     -36.68300000     -70.16440000
H      -43.49880000     -36.63530000     -70.00130000
H      -44.86440000     -37.52530000     -69.58550000
S      -43.62680000     -31.24690000     -68.17280000
S      -44.95080000     -37.08570000     -71.86520000
C      -44.72070000     -31.08670000     -69.70880000
H      -45.63080000     -31.70150000     -69.53460000
H      -45.03200000     -30.02490000     -69.88510000
C      -43.72570000     -36.05570000     -72.75070000
H      -43.79690000     -36.16780000     -73.77340000
H      -42.68600000     -36.31200000     -72.49010000
C      -43.87830000     -34.55640000     -72.40840000
H      -43.97670000     -34.34940000     -71.37330000
H      -43.00230000     -33.94060000     -72.61430000
C      -43.99110000     -31.57880000     -70.95360000
H      -43.77610000     -32.65760000     -70.85270000
H      -43.10210000     -30.96810000     -71.04530000
C      -44.86020000     -31.45440000     -72.15880000
C      -45.43490000     -30.24790000     -72.48120000
C      -45.40910000     -32.53320000     -72.97230000
H      -45.13350000     -29.36630000     -72.04150000
C      -46.28410000     -32.06580000     -73.89230000
C      -45.08210000     -33.93180000     -73.11210000
C      -45.78180000     -34.48590000     -74.16570000
S      -46.55680000     -30.31590000     -73.81300000
S      -46.87390000     -33.37250000     -74.96410000
H      -45.72690000     -35.54370000     -74.45430000
