40
Properties=species:S:1:pos:R:3 #=T CELL(abcABC):=T 1.889726e+02=T 90.00000=T Traj:=T positionsangstrom=T Step:=T 0=T Bead:=T pbc="F F F"
C      -46.71690000     -36.05330000     -69.06650000
C      -45.32620000     -35.73670000     -69.17090000
C      -44.82310000     -34.52970000     -68.61660000
C      -45.64030000     -33.59950000     -67.96110000
C      -47.05950000     -33.89140000     -67.94750000
C      -47.55700000     -35.13080000     -68.43530000
H      -47.08200000     -37.06660000     -69.27950000
H      -43.73630000     -34.35190000     -68.62720000
H      -47.72590000     -33.10500000     -67.59490000
H      -48.65000000     -35.36370000     -68.36190000
C      -45.21710000     -32.39320000     -67.24900000
H      -44.83310000     -32.59060000     -66.28730000
H      -46.08150000     -31.79230000     -67.12180000
C      -44.42340000     -36.78120000     -69.86610000
H      -43.35250000     -36.66260000     -69.60740000
H      -44.51670000     -37.81270000     -69.44860000
S      -43.98950000     -31.40530000     -68.36150000
S      -44.71270000     -36.96600000     -71.63290000
C      -44.98110000     -31.24330000     -69.91170000
H      -45.36070000     -32.27280000     -70.08680000
H      -45.76200000     -30.55860000     -69.80320000
C      -43.38360000     -35.72690000     -72.32160000
H      -43.19180000     -35.83030000     -73.42000000
H      -42.48680000     -36.08450000     -71.80740000
C      -43.75840000     -34.24100000     -72.03130000
H      -44.16330000     -34.22650000     -71.00920000
H      -42.89170000     -33.62060000     -72.12260000
C      -44.08430000     -30.89160000     -71.16510000
H      -43.17030000     -31.45080000     -71.17610000
H      -43.81250000     -29.84380000     -71.05880000
C      -44.90560000     -31.07640000     -72.48210000
C      -45.35860000     -30.00170000     -73.10760000
C      -45.21870000     -32.30870000     -73.14750000
H      -45.25750000     -28.91240000     -72.85710000
C      -46.09230000     -32.05950000     -74.18560000
C      -44.81720000     -33.71100000     -73.00420000
C      -45.48050000     -34.43700000     -73.96900000
S      -46.44070000     -30.36260000     -74.46210000
S      -46.59100000     -33.49640000     -75.00350000
H      -45.54740000     -35.49720000     -74.15360000
