40
Properties=species:S:1:pos:R:3 #=T CELL(abcABC):=T 1.889726e+02=T 90.00000=T Traj:=T positionsangstrom=T Step:=T 0=T Bead:=T pbc="F F F"
C      -46.55040000     -35.91870000     -69.22820000
C      -45.17780000     -35.55620000     -69.24070000
C      -44.80210000     -34.36810000     -68.58380000
C      -45.71900000     -33.47890000     -67.91950000
C      -47.06800000     -33.81930000     -68.01730000
C      -47.47490000     -34.99110000     -68.73290000
H      -46.86080000     -36.72010000     -69.88170000
H      -43.77350000     -34.05970000     -68.75310000
H      -47.86470000     -33.13660000     -67.67380000
H      -48.53470000     -35.11590000     -68.80520000
C      -45.27520000     -32.20120000     -67.27530000
H      -44.73240000     -32.47290000     -66.43690000
H      -46.01630000     -31.57130000     -66.94220000
C      -44.23370000     -36.45760000     -69.94950000
H      -43.16030000     -36.03100000     -69.96480000
H      -44.17600000     -37.41380000     -69.31770000
S      -43.95750000     -31.39630000     -68.29020000
S      -44.62790000     -37.00510000     -71.66080000
C      -44.84200000     -31.30700000     -69.92640000
H      -45.47150000     -32.16750000     -70.10820000
H      -45.47270000     -30.41730000     -69.92790000
C      -43.53430000     -35.96150000     -72.59550000
H      -43.75280000     -36.29630000     -73.63770000
H      -42.40360000     -36.18200000     -72.37850000
C      -43.73960000     -34.45790000     -72.49180000
H      -43.75270000     -34.19680000     -71.45740000
H      -42.72340000     -34.03210000     -72.75030000
C      -43.81530000     -31.29100000     -71.12740000
H      -43.04710000     -32.10550000     -71.04960000
H      -43.27540000     -30.33570000     -71.07070000
C      -44.68240000     -31.37520000     -72.39970000
C      -45.27970000     -30.17790000     -72.69220000
C      -45.16420000     -32.44470000     -73.23330000
H      -45.10220000     -29.13940000     -72.21510000
C      -46.27820000     -32.05620000     -74.01820000
C      -44.81760000     -33.82090000     -73.33940000
C      -45.63540000     -34.47190000     -74.26180000
S      -46.64140000     -30.32970000     -73.84470000
S      -46.84710000     -33.37570000     -75.04540000
H      -45.66450000     -35.49560000     -74.52880000
