40
Properties=species:S:1:pos:R:3 #=T CELL(abcABC):=T 1.889726e+02=T 90.00000=T Traj:=T positionsangstrom=T Step:=T 0=T Bead:=T pbc="F F F"
C      -46.82320000     -35.46170000     -69.58940000
C      -45.42530000     -35.71950000     -69.54750000
C      -44.59240000     -34.88300000     -68.82320000
C      -45.08570000     -33.73120000     -68.27430000
C      -46.42010000     -33.35080000     -68.41150000
C      -47.27430000     -34.21290000     -69.14470000
H      -47.51250000     -36.20670000     -69.94560000
H      -43.50420000     -35.16050000     -68.72170000
H      -46.76150000     -32.35460000     -68.02550000
H      -48.37760000     -34.00580000     -69.25550000
C      -44.26540000     -32.87510000     -67.37360000
H      -43.36840000     -33.42400000     -67.10730000
H      -44.82490000     -32.74540000     -66.39430000
C      -44.81620000     -37.01990000     -70.17380000
H      -43.67020000     -37.20040000     -70.03830000
H      -45.30480000     -37.88720000     -69.71920000
S      -43.62790000     -31.20310000     -68.04550000
S      -45.13080000     -37.20800000     -72.00530000
C      -44.56140000     -30.86220000     -69.61270000
H      -45.54600000     -31.24600000     -69.48120000
H      -44.69620000     -29.79000000     -69.67690000
C      -43.84260000     -36.12490000     -72.58530000
H      -43.72470000     -36.36490000     -73.65940000
H      -42.96500000     -36.60520000     -72.10780000
C      -43.91750000     -34.59470000     -72.32500000
H      -44.08890000     -34.40630000     -71.29360000
H      -42.87500000     -34.19420000     -72.67850000
C      -43.86830000     -31.38020000     -70.96060000
H      -43.47820000     -32.42700000     -70.80640000
H      -43.02240000     -30.68700000     -71.17370000
C      -44.82630000     -31.27880000     -72.16300000
C      -45.53960000     -30.12720000     -72.40410000
C      -45.30400000     -32.40000000     -72.97100000
H      -45.48570000     -29.17900000     -71.86600000
C      -46.29210000     -31.99600000     -73.88950000
C      -44.98820000     -33.81770000     -73.14150000
C      -45.70700000     -34.40280000     -74.16130000
S      -46.68590000     -30.30920000     -73.70170000
S      -46.86270000     -33.27960000     -74.90910000
H      -45.59270000     -35.41600000     -74.46960000
