40
Properties=species:S:1:pos:R:3 #=T CELL(abcABC):=T 1.889726e+02=T 90.00000=T Traj:=T positionsangstrom=T Step:=T 0=T Bead:=T pbc="F F F"
C      -46.65640000     -35.77710000     -69.75160000
C      -45.32750000     -35.80370000     -69.36590000
C      -44.92010000     -34.83650000     -68.38740000
C      -45.70530000     -33.76390000     -68.01370000
C      -47.07430000     -33.86560000     -68.32220000
C      -47.57690000     -34.84280000     -69.21120000
H      -47.00810000     -36.48150000     -70.56000000
H      -43.84930000     -34.84370000     -68.20410000
H      -47.76550000     -33.12830000     -67.81110000
H      -48.65000000     -34.85660000     -69.53840000
C      -45.21550000     -32.56680000     -67.20000000
H      -44.53110000     -32.95010000     -66.36630000
H      -46.01120000     -31.93860000     -66.74450000
C      -44.44130000     -36.84190000     -69.89950000
H      -43.42200000     -36.84140000     -69.54090000
H      -44.79500000     -37.86050000     -69.52500000
S      -44.14810000     -31.40330000     -68.20870000
S      -44.32110000     -36.78410000     -71.69870000
C      -45.11850000     -31.41570000     -69.80690000
H      -45.33780000     -32.43750000     -70.19330000
H      -46.03890000     -30.76210000     -69.67720000
C      -43.14980000     -35.44820000     -71.91260000
H      -42.58330000     -35.54520000     -72.85360000
H      -42.33170000     -35.47980000     -71.21000000
C      -43.75520000     -34.01840000     -71.85970000
H      -44.25380000     -33.90480000     -70.88970000
H      -42.84770000     -33.36410000     -71.72480000
C      -44.28500000     -30.86590000     -70.97600000
H      -43.31030000     -31.41980000     -70.98640000
H      -43.99240000     -29.82960000     -70.86610000
C      -45.25440000     -31.07290000     -72.25160000
C      -46.05620000     -30.09730000     -72.77030000
C      -45.25070000     -32.28180000     -73.06790000
H      -46.18070000     -29.10240000     -72.35980000
C      -46.05460000     -32.15500000     -74.19820000
C      -44.68250000     -33.58270000     -72.95760000
C      -45.06010000     -34.38300000     -74.03040000
S      -46.87330000     -30.59410000     -74.22070000
S      -46.11110000     -33.54990000     -75.22240000
H      -44.80050000     -35.38750000     -74.15500000
