40
Properties=species:S:1:pos:R:3 #=T CELL(abcABC):=T 1.889726e+02=T 90.00000=T Traj:=T positionsangstrom=T Step:=T 0=T Bead:=T pbc="F F F"
C      -46.89070000     -36.03960000     -69.23100000
C      -45.44320000     -35.99690000     -69.23890000
C      -44.76970000     -34.86760000     -68.65740000
C      -45.51920000     -33.87710000     -68.05580000
C      -46.92130000     -34.00100000     -67.95830000
C      -47.60380000     -35.00440000     -68.61520000
H      -47.31350000     -36.93830000     -69.55130000
H      -43.64930000     -34.87130000     -68.78550000
H      -47.52180000     -33.12160000     -67.63020000
H      -48.64970000     -35.05410000     -68.54330000
C      -44.95850000     -32.73270000     -67.27990000
H      -44.20360000     -33.10040000     -66.52530000
H      -45.67450000     -32.13100000     -66.72200000
C      -44.72390000     -37.06560000     -69.91070000
H      -43.74180000     -37.33600000     -69.39600000
H      -45.19410000     -38.02910000     -69.98250000
S      -43.90470000     -31.79840000     -68.52340000
S      -44.38150000     -36.63870000     -71.75710000
C      -45.20880000     -31.22240000     -69.76110000
H      -45.92260000     -31.96190000     -69.87300000
H      -45.64010000     -30.32970000     -69.22730000
C      -43.36870000     -35.14680000     -71.63220000
H      -42.58630000     -35.20560000     -72.49770000
H      -42.71570000     -35.29330000     -70.78170000
C      -44.15200000     -33.84550000     -71.58980000
H      -44.95410000     -33.84150000     -70.89210000
H      -43.48600000     -33.11250000     -71.13000000
C      -44.53270000     -30.63320000     -71.02380000
H      -43.55000000     -31.12430000     -71.17560000
H      -44.27140000     -29.60490000     -70.80410000
C      -45.30840000     -30.89790000     -72.33850000
C      -45.91780000     -29.93130000     -73.03180000
C      -45.24710000     -32.12500000     -73.10880000
H      -46.13800000     -28.92960000     -72.71730000
C      -46.07510000     -32.10450000     -74.25030000
C      -44.74790000     -33.41700000     -72.88000000
C      -45.03970000     -34.32430000     -73.92810000
S      -46.63960000     -30.43230000     -74.61710000
S      -46.13880000     -33.63040000     -75.10800000
H      -44.81050000     -35.40000000     -73.89290000
