40
Properties=species:S:1:pos:R:3 #=T CELL(abcABC):=T 1.889726e+02=T 90.00000=T Traj:=T positionsangstrom=T Step:=T 0=T Bead:=T pbc="F F F"
C      -46.85130000     -35.74680000     -69.55050000
C      -45.49510000     -35.95220000     -69.18460000
C      -44.85160000     -35.03830000     -68.33400000
C      -45.55050000     -33.98350000     -67.74810000
C      -46.95440000     -33.89930000     -68.00880000
C      -47.63160000     -34.80020000     -68.81330000
H      -47.21550000     -36.23000000     -70.44250000
H      -43.84180000     -35.25410000     -68.04520000
H      -47.54600000     -33.33480000     -67.35600000
H      -48.67690000     -34.84130000     -68.95020000
C      -44.82090000     -32.83010000     -67.21250000
H      -43.91290000     -33.11560000     -66.71630000
H      -45.44600000     -32.30980000     -66.44200000
C      -44.63430000     -36.96030000     -69.91170000
H      -43.61900000     -36.92450000     -69.42500000
H      -45.02050000     -37.94230000     -69.86410000
S      -44.07130000     -31.69180000     -68.57040000
S      -44.41780000     -36.66190000     -71.78250000
C      -45.32570000     -31.48340000     -69.88510000
H      -45.63340000     -32.51830000     -70.31860000
H      -46.19860000     -30.89970000     -69.50860000
C      -43.14550000     -35.31670000     -71.81940000
H      -42.50860000     -35.43840000     -72.70320000
H      -42.45870000     -35.48590000     -70.98370000
C      -43.70460000     -33.88190000     -71.83220000
H      -44.08550000     -33.74460000     -70.77460000
H      -42.89200000     -33.15090000     -72.05210000
C      -44.61390000     -30.62970000     -70.96140000
H      -43.60470000     -30.99470000     -70.99910000
H      -44.67030000     -29.57820000     -70.68560000
C      -45.27360000     -30.88110000     -72.32000000
C      -45.96720000     -29.95000000     -72.94780000
C      -45.33870000     -32.17060000     -73.03180000
H      -46.01810000     -28.89210000     -72.61700000
C      -46.05460000     -32.09070000     -74.22880000
C      -44.75950000     -33.53630000     -72.81570000
C      -45.13810000     -34.34710000     -73.86680000
S      -46.68620000     -30.46670000     -74.46080000
S      -46.06740000     -33.56050000     -75.14700000
H      -44.79190000     -35.34990000     -73.90900000
