40
Properties=species:S:1:pos:R:3 #=T CELL(abcABC):=T 1.889726e+02=T 90.00000=T Traj:=T positionsangstrom=T Step:=T 0=T Bead:=T pbc="F F F"
C      -46.79510000     -36.22010000     -69.06210000
C      -45.39540000     -36.02820000     -69.11340000
C      -44.82010000     -34.90060000     -68.48540000
C      -45.68820000     -33.86750000     -67.95560000
C      -47.04800000     -34.06400000     -67.87410000
C      -47.58480000     -35.21220000     -68.44020000
H      -47.35220000     -37.10390000     -69.46970000
H      -43.76830000     -34.70820000     -68.44900000
H      -47.66630000     -33.29960000     -67.45240000
H      -48.73070000     -35.21760000     -68.40850000
C      -44.93340000     -32.63930000     -67.44110000
H      -44.29580000     -32.97920000     -66.67070000
H      -45.60010000     -31.88040000     -66.96460000
C      -44.60620000     -37.07190000     -69.76520000
H      -43.57980000     -37.27840000     -69.36760000
H      -45.11780000     -38.04110000     -69.59760000
S      -43.87710000     -31.85450000     -68.79260000
S      -44.45790000     -36.85040000     -71.57520000
C      -45.20020000     -31.16040000     -69.92860000
H      -45.95830000     -31.90130000     -70.25140000
H      -45.68740000     -30.31930000     -69.43880000
C      -43.39830000     -35.27100000     -71.70240000
H      -42.91040000     -35.46530000     -72.64120000
H      -42.57000000     -35.36960000     -70.93420000
C      -44.20430000     -33.92520000     -71.51780000
H      -44.93110000     -34.08020000     -70.67750000
H      -43.49430000     -33.18540000     -71.34530000
C      -44.43720000     -30.60320000     -71.20580000
H      -43.44040000     -31.10570000     -71.20300000
H      -44.30840000     -29.54920000     -71.01350000
C      -45.18350000     -30.74140000     -72.47450000
C      -45.75200000     -29.71520000     -73.15570000
C      -45.27490000     -32.05830000     -73.11450000
H      -45.76470000     -28.68130000     -72.88300000
C      -45.98610000     -31.95580000     -74.30610000
C      -44.83840000     -33.40890000     -72.80560000
C      -45.21830000     -34.29340000     -73.85130000
S      -46.53910000     -30.30440000     -74.64500000
S      -46.21010000     -33.52000000     -75.08350000
H      -44.98970000     -35.42180000     -73.95990000
