40
Properties=species:S:1:pos:R:3 #=T CELL(abcABC):=T 1.889726e+02=T 90.00000=T Traj:=T positionsangstrom=T Step:=T 0=T Bead:=T pbc="F F F"
C      -46.68890000     -35.90550000     -69.80530000
C      -45.32950000     -35.62720000     -69.44450000
C      -44.98070000     -34.45350000     -68.70490000
C      -46.03840000     -33.69710000     -68.14450000
C      -47.36640000     -34.02600000     -68.43770000
C      -47.69250000     -35.11270000     -69.29440000
H      -46.94490000     -36.70990000     -70.52240000
H      -43.93040000     -34.31780000     -68.47030000
H      -48.18890000     -33.37320000     -67.99320000
H      -48.80020000     -35.25440000     -69.48720000
C      -45.73250000     -32.50250000     -67.23430000
H      -45.19480000     -32.90640000     -66.42230000
H      -46.59230000     -32.04630000     -66.81780000
C      -44.18500000     -36.54670000     -69.95570000
H      -43.23360000     -36.14930000     -69.73080000
H      -44.32820000     -37.56020000     -69.55170000
S      -44.50660000     -31.23540000     -67.97050000
S      -44.18430000     -36.71680000     -71.81560000
C      -45.16750000     -30.92780000     -69.68140000
H      -46.06060000     -31.50260000     -69.82900000
H      -45.58770000     -29.94610000     -69.66720000
C      -42.84090000     -35.44470000     -72.27250000
H      -42.63870000     -35.66170000     -73.34430000
H      -41.99650000     -35.56530000     -71.50650000
C      -43.32000000     -34.02880000     -72.08020000
H      -43.74810000     -33.90870000     -71.10490000
H      -42.52280000     -33.25320000     -72.22080000
C      -44.20830000     -31.16370000     -70.85340000
H      -43.62360000     -32.08990000     -70.59640000
H      -43.50470000     -30.35180000     -70.87030000
C      -44.96990000     -31.23950000     -72.18910000
C      -45.81860000     -30.24170000     -72.59260000
C      -45.09420000     -32.39510000     -73.02240000
H      -46.08960000     -29.36810000     -72.06190000
C      -46.03330000     -32.21670000     -74.07430000
C      -44.51300000     -33.71020000     -73.08420000
C      -44.95590000     -34.52750000     -74.11050000
S      -46.85710000     -30.65580000     -74.04380000
S      -46.15300000     -33.68940000     -75.10440000
H      -44.58510000     -35.49450000     -74.34170000
