40
Properties=species:S:1:pos:R:3 #=T CELL(abcABC):=T 1.889726e+02=T 90.00000=T Traj:=T positionsangstrom=T Step:=T 0=T Bead:=T pbc="F F F"
C      -46.51490000     -35.18710000     -70.90250000
C      -45.50720000     -35.49450000     -69.94310000
C      -45.40690000     -34.69990000     -68.75170000
C      -46.12250000     -33.49500000     -68.60610000
C      -47.12040000     -33.22620000     -69.59510000
C      -47.39560000     -34.10200000     -70.64170000
H      -46.64350000     -35.86270000     -71.77090000
H      -44.56220000     -35.05580000     -68.02000000
H      -47.80940000     -32.38890000     -69.42720000
H      -48.27250000     -33.92660000     -71.25560000
C      -45.96680000     -32.42950000     -67.54890000
H      -45.82540000     -32.92880000     -66.63960000
H      -46.92630000     -31.94500000     -67.46430000
C      -44.84630000     -36.83840000     -70.01210000
H      -44.22740000     -37.04610000     -69.20240000
H      -45.64830000     -37.62710000     -70.07810000
S      -44.66030000     -31.21210000     -67.65040000
S      -43.94100000     -37.06890000     -71.65800000
C      -45.02830000     -30.49050000     -69.34170000
H      -46.09790000     -30.55680000     -69.49580000
H      -44.72720000     -29.44520000     -69.08020000
C      -42.72720000     -35.67960000     -71.88520000
H      -42.11720000     -35.84310000     -72.76230000
H      -42.01890000     -35.74110000     -71.03720000
C      -43.23600000     -34.26060000     -71.87630000
H      -43.68770000     -34.01940000     -70.91320000
H      -42.33880000     -33.67060000     -71.97250000
C      -44.31650000     -31.13460000     -70.52680000
H      -43.93690000     -32.04810000     -70.34260000
H      -43.49090000     -30.57250000     -70.88210000
C      -45.17510000     -31.39800000     -71.83170000
C      -46.20940000     -30.58080000     -72.22130000
C      -45.02870000     -32.55370000     -72.78560000
H      -46.39450000     -29.69490000     -71.77400000
C      -45.99360000     -32.44830000     -73.72270000
C      -44.28240000     -33.79030000     -72.90810000
C      -44.56460000     -34.43130000     -74.07380000
S      -46.93030000     -30.98480000     -73.82640000
S      -45.93680000     -33.65890000     -74.91370000
H      -44.20130000     -35.31790000     -74.47970000
