40
Properties=species:S:1:pos:R:3 #=T CELL(abcABC):=T 1.889726e+02=T 90.00000=T Traj:=T positionsangstrom=T Step:=T 0=T Bead:=T pbc="F F F"
C      -46.66710000     -35.22520000     -70.95690000
C      -45.68230000     -35.49420000     -69.97020000
C      -45.37250000     -34.57970000     -68.95550000
C      -46.10850000     -33.39650000     -68.83330000
C      -47.03550000     -33.09530000     -69.79560000
C      -47.27080000     -33.98460000     -70.85820000
H      -46.89980000     -35.98170000     -71.68050000
H      -44.54180000     -34.95190000     -68.21110000
H      -47.52860000     -32.14100000     -69.78040000
H      -48.08230000     -33.66320000     -71.51930000
C      -46.03560000     -32.54760000     -67.60440000
H      -45.84490000     -33.07620000     -66.65970000
H      -47.02770000     -32.04160000     -67.48140000
C      -44.71540000     -36.68940000     -70.09890000
H      -43.75660000     -36.55280000     -69.53730000
H      -45.25420000     -37.64010000     -69.84900000
S      -44.82500000     -31.07220000     -67.73040000
S      -44.18550000     -36.83340000     -71.77980000
C      -44.97670000     -30.57160000     -69.47220000
H      -46.02190000     -30.56330000     -69.81990000
H      -44.54900000     -29.62110000     -69.62740000
C      -42.67400000     -35.71370000     -71.80550000
H      -42.20430000     -35.93400000     -72.75650000
H      -41.98360000     -35.94890000     -70.96390000
C      -43.13220000     -34.26050000     -71.76650000
H      -43.48160000     -33.95920000     -70.75390000
H      -42.18750000     -33.67620000     -71.87160000
C      -44.29810000     -31.50980000     -70.47010000
H      -44.41630000     -32.46840000     -69.95170000
H      -43.13860000     -31.36800000     -70.46090000
C      -45.02450000     -31.44060000     -71.79350000
C      -46.06920000     -30.59150000     -72.13120000
C      -44.98810000     -32.58150000     -72.68870000
H      -46.35300000     -29.77400000     -71.47490000
C      -45.96600000     -32.47760000     -73.75430000
C      -44.13820000     -33.82280000     -72.77890000
C      -44.49640000     -34.54460000     -73.85650000
S      -47.00740000     -31.02510000     -73.57020000
S      -45.79890000     -33.85370000     -74.81160000
H      -44.00420000     -35.38090000     -74.21710000
