40
Properties=species:S:1:pos:R:3 #=T CELL(abcABC):=T 1.889726e+02=T 90.00000=T Traj:=T positionsangstrom=T Step:=T 0=T Bead:=T pbc="F F F"
C      -46.61120000     -35.21600000     -70.68650000
C      -45.54670000     -35.45800000     -69.82090000
C      -45.36370000     -34.58320000     -68.77240000
C      -46.20590000     -33.48220000     -68.55100000
C      -47.22520000     -33.21140000     -69.46330000
C      -47.42480000     -34.09120000     -70.51690000
H      -46.64110000     -35.90430000     -71.55870000
H      -44.60340000     -34.75450000     -68.00350000
H      -47.83690000     -32.27860000     -69.40610000
H      -48.21330000     -34.03130000     -71.27020000
C      -45.76840000     -32.68920000     -67.33980000
H      -45.17530000     -33.32420000     -66.62720000
H      -46.61300000     -32.24200000     -66.73070000
C      -44.59840000     -36.59930000     -69.94350000
H      -43.81030000     -36.47240000     -69.12360000
H      -45.01400000     -37.53460000     -69.54900000
S      -44.46470000     -31.48750000     -67.87800000
S      -43.84590000     -36.98900000     -71.59430000
C      -45.18670000     -30.69760000     -69.42450000
H      -46.24510000     -30.78500000     -69.47920000
H      -45.07980000     -29.58860000     -69.33330000
C      -42.84880000     -35.51070000     -72.02050000
H      -42.58610000     -35.65770000     -73.11240000
H      -41.88300000     -35.57440000     -71.47260000
C      -43.48240000     -34.13770000     -71.79380000
H      -43.81070000     -34.07940000     -70.76190000
H      -42.72080000     -33.32660000     -71.93410000
C      -44.42090000     -31.28550000     -70.61740000
H      -44.10530000     -32.19730000     -70.13480000
H      -43.51600000     -30.63980000     -70.72100000
C      -45.20610000     -31.43350000     -71.86820000
C      -46.14390000     -30.50750000     -72.25260000
C      -45.14800000     -32.51560000     -72.83990000
H      -46.33920000     -29.67130000     -71.73330000
C      -46.01700000     -32.35220000     -73.88380000
C      -44.56520000     -33.80880000     -72.79630000
C      -44.76530000     -34.50370000     -73.97500000
S      -46.97340000     -30.89170000     -73.81210000
S      -45.78940000     -33.61870000     -75.03740000
H      -44.36160000     -35.52350000     -74.19740000
