40
Properties=species:S:1:pos:R:3 #=T CELL(abcABC):=T 1.889726e+02=T 90.00000=T Traj:=T positionsangstrom=T Step:=T 0=T Bead:=T pbc="F F F"
C      -47.05870000     -31.59640000     -71.09620000
C      -45.84750000     -30.94050000     -71.02180000
C      -44.85120000     -31.08280000     -70.05410000
C      -45.15450000     -32.02600000     -69.06330000
C      -46.48960000     -32.70040000     -69.03170000
C      -47.36770000     -32.52140000     -70.10890000
H      -47.69560000     -31.53680000     -71.95900000
H      -43.96170000     -30.41780000     -69.98610000
H      -46.73230000     -33.42480000     -68.27070000
H      -48.26890000     -33.13720000     -70.07910000
C      -44.23090000     -32.34620000     -67.92590000
H      -44.64360000     -32.48600000     -66.87610000
H      -43.54010000     -31.48970000     -67.77900000
C      -45.51910000     -29.95430000     -72.10920000
H      -46.47610000     -29.36620000     -72.43240000
H      -44.78120000     -29.24230000     -71.77670000
S      -43.42530000     -33.93670000     -68.22030000
S      -45.02580000     -30.76880000     -73.75290000
C      -42.73600000     -33.84190000     -69.87410000
H      -43.14960000     -32.93680000     -70.42110000
H      -41.56610000     -33.68140000     -69.93100000
C      -43.63960000     -31.87280000     -73.15980000
H      -43.62500000     -31.84880000     -72.12840000
H      -42.72590000     -31.35800000     -73.47510000
C      -43.57660000     -33.35090000     -73.67340000
H      -43.50180000     -33.31770000     -74.77230000
H      -42.59890000     -33.81380000     -73.49790000
C      -43.08210000     -35.07370000     -70.77070000
H      -42.58860000     -35.89310000     -70.24670000
H      -42.55050000     -34.98860000     -71.73050000
C      -44.59790000     -35.29880000     -70.93840000
C      -45.40000000     -35.96000000     -70.07350000
C      -45.27850000     -34.80840000     -72.14500000
H      -45.04300000     -36.47600000     -69.21140000
C      -46.63370000     -35.07740000     -72.08230000
C      -44.88000000     -34.06970000     -73.33830000
C      -45.92170000     -34.08010000     -74.25120000
S      -47.04700000     -36.00050000     -70.68610000
S      -47.45930000     -34.78180000     -73.64320000
H      -45.96730000     -33.92410000     -75.34580000
