40
Properties=species:S:1:pos:R:3 #=T CELL(abcABC):=T 1.889726e+02=T 90.00000=T Traj:=T positionsangstrom=T Step:=T 0=T Bead:=T pbc="F F F"
C      -45.57690000     -28.77600000     -71.14380000
C      -45.03380000     -29.88370000     -70.46980000
C      -44.01380000     -30.65860000     -71.23130000
C      -43.74270000     -30.34760000     -72.59570000
C      -44.46240000     -29.29460000     -73.23320000
C      -45.32700000     -28.48980000     -72.52980000
H      -46.32760000     -27.98860000     -70.61260000
H      -43.52030000     -31.35290000     -70.60950000
H      -44.28650000     -29.07350000     -74.29190000
H      -45.81390000     -27.65060000     -73.00970000
C      -42.77810000     -31.17260000     -73.39030000
H      -42.13460000     -31.80340000     -72.78610000
H      -42.17400000     -30.54230000     -74.04750000
C      -45.48830000     -30.31720000     -69.16700000
H      -44.95390000     -31.10980000     -68.67190000
H      -45.47090000     -29.59250000     -68.36650000
S      -43.78230000     -32.34240000     -74.54730000
S      -47.27020000     -30.95400000     -69.28920000
C      -43.94090000     -33.91030000     -73.62530000
H      -43.82410000     -34.68520000     -74.41940000
H      -43.15530000     -33.97680000     -72.89330000
C      -47.09450000     -32.64700000     -70.03050000
H      -47.05280000     -32.54290000     -71.18250000
H      -47.97820000     -33.17300000     -69.74930000
C      -45.87220000     -33.35820000     -69.47810000
H      -45.03990000     -32.94670000     -70.03560000
H      -45.84080000     -33.08110000     -68.39010000
C      -45.29120000     -34.16930000     -73.05350000
H      -45.97280000     -34.22920000     -73.88040000
H      -45.65100000     -33.38560000     -72.39980000
C      -45.37720000     -35.45990000     -72.27250000
C      -45.17110000     -36.65600000     -72.91030000
C      -45.74180000     -35.67360000     -70.84480000
H      -45.04120000     -36.95820000     -73.92920000
C      -45.68740000     -37.03900000     -70.54570000
C      -45.84760000     -34.87440000     -69.61000000
C      -46.06570000     -35.72270000     -68.52460000
S      -45.32480000     -38.07200000     -71.88010000
S      -46.14770000     -37.48150000     -68.89570000
H      -45.98940000     -35.42020000     -67.48560000
