40
Properties=species:S:1:pos:R:3 #=T CELL(abcABC):=T 1.889726e+02=T 90.00000=T Traj:=T positionsangstrom=T Step:=T 0=T Bead:=T pbc="F F F"
C      -47.24200000     -32.04960000     -71.56160000
C      -46.05710000     -31.29660000     -71.49600000
C      -45.15250000     -31.38610000     -70.38090000
C      -45.68120000     -32.02770000     -69.21480000
C      -46.91580000     -32.68260000     -69.24580000
C      -47.70790000     -32.69140000     -70.39740000
H      -47.70760000     -31.96100000     -72.53440000
H      -44.26620000     -30.73840000     -70.34310000
H      -47.14650000     -33.23610000     -68.32980000
H      -48.54340000     -33.32470000     -70.38380000
C      -44.84130000     -32.07970000     -67.99150000
H      -45.34690000     -32.25740000     -67.04250000
H      -44.14080000     -31.25070000     -67.86240000
C      -45.75020000     -30.49370000     -72.76930000
H      -46.57030000     -30.83990000     -73.47940000
H      -45.96180000     -29.46720000     -72.54910000
S      -43.87310000     -33.65240000     -67.98660000
S      -44.19930000     -30.75250000     -73.82220000
C      -43.05000000     -33.74370000     -69.64420000
H      -43.63090000     -33.10140000     -70.23500000
H      -42.08200000     -33.40910000     -69.58830000
C      -43.11500000     -31.85160000     -72.98470000
H      -43.06840000     -31.76880000     -71.85200000
H      -42.11750000     -31.55620000     -73.27220000
C      -43.23680000     -33.32340000     -73.33910000
H      -42.98220000     -33.47390000     -74.42360000
H      -42.53770000     -33.82650000     -72.68330000
C      -43.14250000     -35.12250000     -70.28130000
H      -42.87420000     -35.86410000     -69.49470000
H      -42.35880000     -35.23330000     -71.04150000
C      -44.56290000     -35.44420000     -70.77170000
C      -45.50650000     -36.06580000     -69.99260000
C      -45.04820000     -34.86400000     -72.01720000
H      -45.21230000     -36.73000000     -69.18360000
C      -46.41640000     -35.23490000     -72.16030000
C      -44.63460000     -33.93020000     -73.11570000
C      -45.64230000     -33.71670000     -74.00140000
S      -47.09690000     -36.05960000     -70.76240000
S      -47.16450000     -34.43950000     -73.51050000
H      -45.57480000     -33.16500000     -74.92270000
