40
Properties=species:S:1:pos:R:3 #=T CELL(abcABC):=T 1.889726e+02=T 90.00000=T Traj:=T positionsangstrom=T Step:=T 0=T Bead:=T pbc="F F F"
C      -46.66800000     -35.24340000     -70.68040000
C      -45.76160000     -35.31660000     -69.64500000
C      -45.83910000     -34.27820000     -68.69540000
C      -46.69020000     -33.14200000     -68.72140000
C      -47.46470000     -33.04670000     -69.88130000
C      -47.46300000     -34.05410000     -70.83070000
H      -46.72040000     -36.09080000     -71.40740000
H      -45.24210000     -34.35570000     -67.80020000
H      -48.10420000     -32.16220000     -70.05400000
H      -47.98070000     -33.97750000     -71.75690000
C      -46.72100000     -32.14060000     -67.63340000
H      -46.45200000     -32.55470000     -66.66030000
H      -47.73480000     -31.61880000     -67.65750000
C      -44.91360000     -36.50580000     -69.43170000
H      -44.23380000     -36.38700000     -68.57710000
H      -45.57730000     -37.39020000     -69.16770000
S      -45.40150000     -30.80100000     -67.88380000
S      -43.90330000     -37.16730000     -70.89990000
C      -45.68440000     -30.45650000     -69.71060000
H      -46.76250000     -30.68580000     -69.94220000
H      -45.56490000     -29.43600000     -69.91880000
C      -42.65320000     -35.76010000     -71.34820000
H      -42.33760000     -36.00620000     -72.33730000
H      -41.80760000     -35.79150000     -70.63340000
C      -43.29770000     -34.37800000     -71.39560000
H      -43.91270000     -34.25360000     -70.51690000
H      -42.52460000     -33.59610000     -71.38890000
C      -44.67860000     -31.30490000     -70.61640000
H      -44.61300000     -32.24120000     -70.04090000
H      -43.72350000     -30.79260000     -70.74010000
C      -45.09300000     -31.49030000     -72.10100000
C      -45.82960000     -30.60840000     -72.78150000
C      -44.84930000     -32.71300000     -72.83600000
H      -46.27010000     -29.73490000     -72.37330000
C      -45.42350000     -32.63350000     -74.08480000
C      -44.20090000     -34.00460000     -72.60340000
C      -44.24380000     -34.84030000     -73.67500000
S      -46.15280000     -31.10040000     -74.45660000
S      -45.10680000     -34.00420000     -75.06000000
H      -43.90260000     -35.75500000     -73.59940000
