40
Properties=species:S:1:pos:R:3 #=T CELL(abcABC):=T 1.889726e+02=T 90.00000=T Traj:=T positionsangstrom=T Step:=T 0=T Bead:=T pbc="F F F"
C      -41.87890000     -34.24530000     -70.68760000
C      -42.53400000     -34.17200000     -69.46210000
C      -42.99210000     -32.83390000     -69.11210000
C      -42.64830000     -31.68420000     -69.89560000
C      -41.95070000     -31.78690000     -71.04580000
C      -41.60880000     -33.06430000     -71.43950000
H      -41.61490000     -35.22260000     -71.08600000
H      -43.55780000     -32.70880000     -68.21090000
H      -41.64930000     -30.81430000     -71.51850000
H      -41.11380000     -33.18180000     -72.32560000
C      -43.09200000     -30.33570000     -69.32480000
H      -42.64510000     -29.54200000     -69.89120000
H      -42.81550000     -30.28870000     -68.17750000
C      -43.03550000     -35.31910000     -68.65140000
H      -42.12160000     -35.89550000     -68.28040000
H      -43.67380000     -35.07940000     -67.78190000
S      -45.00540000     -30.02130000     -69.42340000
S      -43.82540000     -36.66190000     -69.68080000
C      -45.54770000     -30.87210000     -70.87360000
H      -46.02730000     -30.15440000     -71.56910000
H      -44.57120000     -31.20310000     -71.41020000
C      -45.22020000     -35.87520000     -70.53330000
H      -45.88390000     -35.47070000     -69.77690000
H      -45.85230000     -36.60080000     -70.96680000
C      -44.88240000     -34.84440000     -71.66710000
H      -44.64300000     -33.84810000     -71.30670000
H      -44.02770000     -35.19170000     -72.28340000
C      -46.50970000     -32.05000000     -70.49620000
H      -47.21860000     -31.80850000     -69.71400000
H      -45.82290000     -32.79230000     -70.01900000
C      -47.31850000     -32.46330000     -71.70330000
C      -48.44490000     -31.77690000     -72.10300000
C      -47.10440000     -33.68980000     -72.49480000
H      -48.89640000     -30.86820000     -71.69620000
C      -47.98580000     -33.77180000     -73.51280000
C      -46.03530000     -34.70060000     -72.59730000
C      -46.26320000     -35.56260000     -73.57540000
S      -49.21280000     -32.51690000     -73.47200000
S      -47.66960000     -35.13160000     -74.61850000
H      -45.56430000     -36.30050000     -73.89440000
