40
Properties=species:S:1:pos:R:3 #=T CELL(abcABC):=T 1.889726e+02=T 90.00000=T Traj:=T positionsangstrom=T Step:=T 0=T Bead:=T pbc="F F F"
C      -45.68810000     -28.75990000     -71.29980000
C      -45.14350000     -29.95670000     -70.65540000
C      -44.27150000     -30.71130000     -71.40620000
C      -43.79830000     -30.27000000     -72.65000000
C      -44.26250000     -29.09730000     -73.26540000
C      -45.25550000     -28.32920000     -72.55830000
H      -46.39160000     -28.22890000     -70.75910000
H      -43.95570000     -31.65550000     -70.90530000
H      -43.99850000     -28.64730000     -74.20090000
H      -45.77500000     -27.40130000     -72.81120000
C      -42.81830000     -31.13380000     -73.48750000
H      -42.14900000     -31.69480000     -72.80680000
H      -42.19560000     -30.48780000     -74.13530000
C      -45.49130000     -30.34680000     -69.25790000
H      -44.78280000     -31.06940000     -68.81240000
H      -45.66010000     -29.39390000     -68.75070000
S      -43.71290000     -32.38560000     -74.54170000
S      -47.27060000     -31.04080000     -69.19060000
C      -43.75200000     -33.89180000     -73.36610000
H      -43.37960000     -34.74580000     -73.88820000
H      -43.06040000     -33.66570000     -72.54220000
C      -47.17270000     -32.80650000     -69.70890000
H      -47.45160000     -32.92840000     -70.72430000
H      -47.89620000     -33.42750000     -69.09110000
C      -45.79160000     -33.40020000     -69.57220000
H      -45.03190000     -33.09040000     -70.29350000
H      -45.35100000     -33.18560000     -68.61260000
C      -45.13360000     -34.08710000     -72.86950000
H      -45.96740000     -33.96200000     -73.59600000
H      -45.36520000     -33.35990000     -72.08720000
C      -45.28280000     -35.49790000     -72.24120000
C      -45.22980000     -36.67020000     -72.92980000
C      -45.64130000     -35.70710000     -70.88380000
H      -44.84520000     -36.91170000     -73.90510000
C      -45.70090000     -37.06460000     -70.52170000
C      -45.88130000     -34.87420000     -69.71710000
C      -46.28080000     -35.64710000     -68.61040000
S      -45.38120000     -38.12930000     -71.90060000
S      -46.14410000     -37.38250000     -68.88810000
H      -46.49770000     -35.21810000     -67.62750000
