40
Properties=species:S:1:pos:R:3 #=T CELL(abcABC):=T 1.889726e+02=T 90.00000=T Traj:=T positionsangstrom=T Step:=T 0=T Bead:=T pbc="F F F"
C      -43.81200000     -36.80460000     -73.47200000
C      -43.68330000     -36.46280000     -72.13820000
C      -43.04400000     -35.26110000     -71.80770000
C      -42.56380000     -34.41160000     -72.79290000
C      -42.99040000     -34.62600000     -74.10170000
C      -43.52930000     -35.85100000     -74.46400000
H      -44.19730000     -37.81970000     -73.73020000
H      -42.83800000     -35.00570000     -70.80010000
H      -42.72540000     -33.88440000     -74.91310000
H      -43.65940000     -36.11810000     -75.45880000
C      -41.65700000     -33.22950000     -72.46640000
H      -40.71950000     -33.26990000     -72.98820000
H      -41.45800000     -33.26630000     -71.35540000
C      -44.32180000     -37.34090000     -71.07680000
H      -44.84800000     -38.18350000     -71.54800000
H      -43.66200000     -37.66230000     -70.26960000
S      -42.49300000     -31.67280000     -72.92270000
S      -45.74630000     -36.33440000     -70.30760000
C      -43.91900000     -31.72470000     -71.79280000
H      -44.05090000     -32.73970000     -71.41640000
H      -43.75600000     -31.16440000     -70.90360000
C      -46.74130000     -35.75670000     -71.74500000
H      -47.86640000     -35.87560000     -71.59260000
H      -46.44320000     -36.48050000     -72.54570000
C      -46.49970000     -34.26130000     -72.03140000
H      -45.44100000     -34.02190000     -72.28550000
H      -47.11850000     -34.02550000     -72.87070000
C      -45.16100000     -31.05620000     -72.46480000
H      -45.55220000     -31.82540000     -73.13690000
H      -44.93080000     -30.18150000     -73.11250000
C      -46.11020000     -30.84900000     -71.30380000
C      -46.33610000     -29.64760000     -70.69230000
C      -46.71760000     -31.96350000     -70.60050000
H      -46.06390000     -28.69890000     -71.19890000
C      -47.30320000     -31.49800000     -69.36660000
C      -47.00710000     -33.40140000     -70.82710000
C      -47.94060000     -33.82980000     -69.93090000
S      -47.30380000     -29.71080000     -69.20790000
S      -48.38000000     -32.69910000     -68.60020000
H      -48.25900000     -34.89940000     -70.01120000
