40
Properties=species:S:1:pos:R:3 #=T CELL(abcABC):=T 1.889726e+02=T 90.00000=T Traj:=T positionsangstrom=T Step:=T 0=T Bead:=T pbc="F F F"
C      -46.55560000     -31.18030000     -72.10620000
C      -45.53160000     -30.63860000     -71.31400000
C      -45.60110000     -30.86640000     -69.93950000
C      -46.49840000     -31.77490000     -69.37340000
C      -47.50920000     -32.26580000     -70.11360000
C      -47.55880000     -32.02910000     -71.46780000
H      -46.65470000     -31.26070000     -73.19530000
H      -44.88620000     -30.39380000     -69.30410000
H      -48.13810000     -33.11790000     -69.69650000
H      -48.38150000     -32.36510000     -72.12860000
C      -46.31760000     -32.07470000     -67.91820000
H      -47.24370000     -32.59370000     -67.54330000
H      -45.86280000     -31.17860000     -67.41130000
C      -44.35750000     -29.94310000     -71.90370000
H      -44.70150000     -29.04700000     -72.43910000
H      -43.74180000     -29.75460000     -71.02880000
S      -45.10820000     -33.61640000     -67.66450000
S      -43.53520000     -30.92080000     -73.25890000
C      -43.89010000     -33.53060000     -69.00140000
H      -44.28140000     -32.80470000     -69.79700000
H      -42.88970000     -33.13650000     -68.61070000
C      -42.77620000     -32.13440000     -72.21770000
H      -43.22310000     -32.02280000     -71.17950000
H      -41.73850000     -31.92340000     -71.98940000
C      -42.87330000     -33.58540000     -72.80470000
H      -42.30380000     -33.58040000     -73.74830000
H      -42.45230000     -34.33760000     -72.17740000
C      -43.69820000     -34.91070000     -69.66160000
H      -43.56150000     -35.68480000     -68.93810000
H      -42.71300000     -34.98480000     -70.13440000
C      -44.78620000     -35.26590000     -70.58460000
C      -45.79890000     -36.11610000     -70.19290000
C      -44.96940000     -34.88700000     -72.04070000
H      -46.16290000     -36.37750000     -69.21610000
C      -46.17120000     -35.40530000     -72.55270000
C      -44.27070000     -34.17200000     -73.05860000
C      -44.90570000     -34.29220000     -74.29770000
S      -47.08380000     -36.41050000     -71.39400000
S      -46.42000000     -35.14400000     -74.24060000
H      -44.75140000     -33.79130000     -75.26120000
