40
Properties=species:S:1:pos:R:3 #=T CELL(abcABC):=T 1.889726e+02=T 90.00000=T Traj:=T positionsangstrom=T Step:=T 0=T Bead:=T pbc="F F F"
C      -46.40840000     -29.34070000     -71.64630000
C      -45.29650000     -29.67150000     -70.84770000
C      -44.14800000     -30.31810000     -71.44510000
C      -44.11710000     -30.48450000     -72.82460000
C      -45.12640000     -29.94860000     -73.66240000
C      -46.24290000     -29.38030000     -73.04200000
H      -47.33740000     -29.03770000     -71.17660000
H      -43.20240000     -30.45630000     -70.91740000
H      -45.08130000     -29.88470000     -74.71450000
H      -47.00510000     -28.97250000     -73.66210000
C      -42.90670000     -31.05870000     -73.52700000
H      -42.05480000     -31.10380000     -72.84630000
H      -42.68990000     -30.38730000     -74.33790000
C      -45.54140000     -29.90950000     -69.38140000
H      -44.65940000     -30.45930000     -68.97550000
H      -45.70790000     -29.00810000     -68.79710000
S      -43.38010000     -32.67000000     -74.34750000
S      -47.09490000     -30.94730000     -69.11250000
C      -43.65300000     -33.75770000     -72.91490000
H      -43.09050000     -34.69860000     -73.08990000
H      -43.25950000     -33.24390000     -72.02090000
C      -46.71000000     -32.49530000     -69.96310000
H      -46.63320000     -32.26410000     -70.97430000
H      -47.59060000     -33.11050000     -69.81530000
C      -45.48050000     -33.30180000     -69.49830000
H      -44.70160000     -32.84110000     -70.06870000
H      -45.29620000     -33.25520000     -68.34290000
C      -45.20060000     -34.00620000     -72.72320000
H      -45.65820000     -33.92310000     -73.73560000
H      -45.58100000     -33.20410000     -72.13340000
C      -45.44650000     -35.36650000     -72.18720000
C      -45.45380000     -36.51640000     -72.93830000
C      -45.52260000     -35.63250000     -70.76560000
H      -45.54580000     -36.53350000     -74.05340000
C      -45.58020000     -37.01000000     -70.44060000
C      -45.58900000     -34.83110000     -69.59080000
C      -45.70990000     -35.52810000     -68.42630000
S      -45.48840000     -37.99610000     -71.98270000
S      -45.94060000     -37.25980000     -68.72080000
H      -45.57510000     -35.10810000     -67.44460000
