40
Properties=species:S:1:pos:R:3 #=T CELL(abcABC):=T 1.889726e+02=T 90.00000=T Traj:=T positionsangstrom=T Step:=T 0=T Bead:=T pbc="F F F"
C      -47.03350000     -29.91450000     -72.03920000
C      -45.94480000     -29.73150000     -71.17950000
C      -44.63770000     -30.08270000     -71.63520000
C      -44.42060000     -30.63760000     -72.86950000
C      -45.53370000     -30.80610000     -73.67100000
C      -46.82490000     -30.44610000     -73.31110000
H      -48.01960000     -29.52250000     -71.74700000
H      -43.80660000     -29.99410000     -70.98960000
H      -45.37050000     -31.40860000     -74.58740000
H      -47.68290000     -30.44110000     -73.98640000
C      -43.10740000     -31.22330000     -73.19090000
H      -42.69460000     -31.56700000     -72.20460000
H      -42.44200000     -30.42830000     -73.50130000
C      -46.08510000     -29.23600000     -69.78090000
H      -45.37980000     -28.47420000     -69.53820000
H      -47.15890000     -28.90450000     -69.57620000
S      -42.91370000     -32.64350000     -74.31440000
S      -45.54090000     -30.58150000     -68.58680000
C      -43.51790000     -34.12040000     -73.25890000
H      -43.33240000     -34.99270000     -73.84020000
H      -42.90080000     -34.08280000     -72.32690000
C      -46.16920000     -32.22730000     -69.33210000
H      -46.74230000     -31.97690000     -70.15430000
H      -46.91590000     -32.64930000     -68.59920000
C      -45.07960000     -33.26340000     -69.62030000
H      -44.42470000     -33.07410000     -70.54480000
H      -44.39030000     -33.14610000     -68.70560000
C      -45.03100000     -34.06550000     -72.90450000
H      -45.53880000     -33.88870000     -73.86440000
H      -45.12880000     -33.23560000     -72.26090000
C      -45.57830000     -35.32210000     -72.23740000
C      -45.76050000     -36.51690000     -72.89550000
C      -45.63200000     -35.54810000     -70.79500000
H      -45.67480000     -36.56850000     -74.03500000
C      -45.83690000     -36.89270000     -70.52930000
C      -45.57670000     -34.67820000     -69.61620000
C      -45.70630000     -35.39540000     -68.45090000
S      -46.15620000     -37.87370000     -71.87160000
S      -45.96230000     -37.12950000     -68.80750000
H      -45.57850000     -35.19050000     -67.41660000
