40
Properties=species:S:1:pos:R:3 #=T CELL(abcABC):=T 1.889726e+02=T 90.00000=T Traj:=T positionsangstrom=T Step:=T 0=T Bead:=T pbc="F F F"
C      -47.05120000     -30.19940000     -71.95340000
C      -45.92330000     -30.08350000     -71.11480000
C      -44.70020000     -30.20840000     -71.69040000
C      -44.51060000     -30.60240000     -73.05400000
C      -45.65480000     -30.74910000     -73.83660000
C      -46.94590000     -30.55490000     -73.29380000
H      -47.98120000     -29.98670000     -71.47340000
H      -43.75400000     -30.05470000     -71.11390000
H      -45.62920000     -30.90720000     -74.92140000
H      -47.78230000     -30.65760000     -73.93510000
C      -43.13240000     -30.96830000     -73.54280000
H      -42.50280000     -30.83670000     -72.62250000
H      -42.69760000     -30.20980000     -74.20880000
C      -46.10060000     -29.62370000     -69.69670000
H      -45.79420000     -28.54960000     -69.55190000
H      -47.21930000     -29.50760000     -69.60130000
S      -42.86580000     -32.67370000     -74.19340000
S      -45.26070000     -30.64910000     -68.43930000
C      -43.61820000     -33.76670000     -72.95830000
H      -43.14700000     -34.73150000     -73.19440000
H      -43.35740000     -33.50010000     -71.91950000
C      -45.83040000     -32.38020000     -68.74170000
H      -46.82410000     -32.24820000     -69.28740000
H      -45.95040000     -32.82990000     -67.79700000
C      -44.89350000     -33.20930000     -69.65590000
H      -44.90770000     -32.81470000     -70.65600000
H      -43.87650000     -33.12600000     -69.29500000
C      -45.14830000     -33.96610000     -73.02570000
H      -45.52480000     -34.02540000     -74.05280000
H      -45.73440000     -33.06810000     -72.64270000
C      -45.44940000     -35.28750000     -72.30040000
C      -45.88770000     -36.40300000     -73.02930000
C      -45.61620000     -35.50310000     -70.88480000
H      -45.89400000     -36.54950000     -74.07060000
C      -46.07890000     -36.80390000     -70.60420000
C      -45.37830000     -34.64640000     -69.71270000
C      -45.57850000     -35.39360000     -68.54120000
S      -46.25520000     -37.84440000     -71.99900000
S      -46.15600000     -36.99900000     -68.82870000
H      -45.46320000     -35.02890000     -67.54760000
