40
Properties=species:S:1:pos:R:3 #=T CELL(abcABC):=T 1.889726e+02=T 90.00000=T Traj:=T positionsangstrom=T Step:=T 0=T Bead:=T pbc="F F F"
C      -48.43800000     -36.38360000     -72.25250000
C      -47.11970000     -36.18250000     -72.73200000
C      -46.05630000     -36.18070000     -71.77590000
C      -46.35330000     -36.48720000     -70.41880000
C      -47.70720000     -36.55870000     -69.97360000
C      -48.72870000     -36.56380000     -70.92450000
H      -49.34090000     -36.38490000     -72.90920000
H      -44.99030000     -36.23520000     -72.05500000
H      -47.89160000     -36.69670000     -68.88860000
H      -49.77910000     -36.77050000     -70.69540000
C      -45.27840000     -36.45790000     -69.39920000
H      -44.31420000     -36.21720000     -69.76980000
H      -45.13470000     -37.41300000     -68.86500000
C      -46.86760000     -35.83350000     -74.18670000
H      -46.88880000     -36.74250000     -74.83560000
H      -47.63120000     -35.07380000     -74.57570000
S      -45.63300000     -35.11630000     -68.10120000
S      -45.20910000     -35.22960000     -74.57230000
C      -45.32730000     -33.57190000     -69.06410000
H      -46.02360000     -33.47320000     -69.91340000
H      -45.39380000     -32.73160000     -68.27940000
C      -45.31070000     -33.46040000     -74.01270000
H      -45.91660000     -32.89880000     -74.79990000
H      -44.27550000     -33.17910000     -74.11610000
C      -45.75940000     -33.07690000     -72.60240000
H      -46.86220000     -33.06690000     -72.51770000
H      -45.49430000     -33.71730000     -71.86030000
C      -43.92280000     -33.50890000     -69.62240000
H      -43.98790000     -34.16310000     -70.52500000
H      -43.16470000     -33.86590000     -69.04700000
C      -43.57040000     -32.11740000     -70.10370000
C      -42.83420000     -31.28380000     -69.34900000
C      -44.21020000     -31.37710000     -71.18770000
H      -42.20420000     -31.45000000     -68.47560000
C      -43.91610000     -30.02740000     -71.15280000
C      -45.16940000     -31.68320000     -72.28650000
C      -45.57980000     -30.56810000     -72.92110000
S      -42.85080000     -29.59080000     -69.84360000
S      -44.74260000     -29.05490000     -72.38080000
H      -46.19640000     -30.50510000     -73.76960000
