40
Properties=species:S:1:pos:R:3 #=T CELL(abcABC):=T 1.889726e+02=T 90.00000=T Traj:=T positionsangstrom=T Step:=T 0=T Bead:=T pbc="F F F"
C      -47.10040000     -30.15340000     -72.12390000
C      -46.07560000     -30.20000000     -71.21440000
C      -44.77400000     -30.46790000     -71.64400000
C      -44.49640000     -30.55820000     -72.98740000
C      -45.55660000     -30.54850000     -73.90850000
C      -46.85140000     -30.39230000     -73.44140000
H      -48.11350000     -29.96650000     -71.75920000
H      -43.88510000     -30.29630000     -71.02600000
H      -45.34320000     -30.73580000     -74.94990000
H      -47.68630000     -30.28670000     -74.23360000
C      -43.13950000     -30.72410000     -73.50200000
H      -42.32130000     -30.45310000     -72.80530000
H      -42.90000000     -30.12500000     -74.39680000
C      -46.35930000     -30.05520000     -69.69140000
H      -46.45980000     -28.93720000     -69.53160000
H      -47.40700000     -30.38480000     -69.49420000
S      -42.79570000     -32.49350000     -74.16850000
S      -45.14190000     -30.73890000     -68.46620000
C      -43.39120000     -33.63480000     -72.86530000
H      -42.74790000     -34.50490000     -72.78730000
H      -43.19850000     -33.13210000     -71.90110000
C      -45.55610000     -32.49400000     -68.42810000
H      -46.65940000     -32.61400000     -68.41730000
H      -45.10120000     -32.87230000     -67.45780000
C      -45.05120000     -33.22800000     -69.63200000
H      -45.42840000     -32.64010000     -70.44920000
H      -44.00630000     -33.19590000     -69.77600000
C      -44.86710000     -33.96710000     -72.98950000
H      -45.06210000     -34.11370000     -74.10090000
H      -45.48330000     -33.16490000     -72.52250000
C      -45.34790000     -35.28200000     -72.27600000
C      -45.75800000     -36.36930000     -73.04520000
C      -45.61920000     -35.46510000     -70.84890000
H      -45.76140000     -36.47320000     -74.11460000
C      -46.15660000     -36.75320000     -70.59580000
C      -45.53040000     -34.69580000     -69.62760000
C      -45.71640000     -35.49010000     -68.52440000
S      -46.37030000     -37.73800000     -72.04990000
S      -46.31100000     -37.13590000     -68.90600000
H      -45.69200000     -35.10130000     -67.48870000
