40
Properties=species:S:1:pos:R:3 #=T CELL(abcABC):=T 1.889726e+02=T 90.00000=T Traj:=T positionsangstrom=T Step:=T 0=T Bead:=T pbc="F F F"
C      -46.89960000     -29.70880000     -72.05940000
C      -45.84350000     -29.86270000     -71.08130000
C      -44.60180000     -30.32210000     -71.55420000
C      -44.39600000     -30.68200000     -72.87840000
C      -45.48630000     -30.64170000     -73.72570000
C      -46.72630000     -30.12600000     -73.36820000
H      -47.85870000     -29.42710000     -71.74430000
H      -43.79550000     -30.38560000     -70.83100000
H      -45.26640000     -30.98790000     -74.71900000
H      -47.51780000     -30.21750000     -74.07210000
C      -43.01220000     -31.13960000     -73.31760000
H      -42.39280000     -31.26710000     -72.44080000
H      -42.50780000     -30.29190000     -73.85670000
C      -46.10190000     -29.41950000     -69.67660000
H      -45.34570000     -28.72850000     -69.39800000
H      -47.04670000     -28.80850000     -69.55680000
S      -43.01980000     -32.70150000     -74.41780000
S      -46.00140000     -30.79660000     -68.49300000
C      -43.54300000     -34.03960000     -73.26940000
H      -43.24030000     -35.00870000     -73.71700000
H      -42.90390000     -33.93850000     -72.41350000
C      -46.29830000     -32.28840000     -69.46790000
H      -46.47360000     -31.96580000     -70.50180000
H      -47.14820000     -32.85550000     -69.03280000
C      -45.03990000     -33.18760000     -69.51230000
H      -44.40670000     -32.86040000     -70.29560000
H      -44.56200000     -33.04690000     -68.61870000
C      -45.03700000     -34.05880000     -72.94000000
H      -45.54250000     -33.92670000     -73.93810000
H      -45.43210000     -33.24140000     -72.34990000
C      -45.46910000     -35.30840000     -72.23980000
C      -45.65280000     -36.48750000     -72.90030000
C      -45.43470000     -35.50680000     -70.78310000
H      -45.71060000     -36.50250000     -74.02060000
C      -45.76160000     -36.85750000     -70.48230000
C      -45.28820000     -34.69540000     -69.60060000
C      -45.45550000     -35.40990000     -68.44770000
S      -46.04280000     -37.84440000     -71.87790000
S      -46.06070000     -37.05410000     -68.76260000
H      -45.50090000     -35.08450000     -67.44090000
