40
Properties=species:S:1:pos:R:3 #=T CELL(abcABC):=T 1.889726e+02=T 90.00000=T Traj:=T positionsangstrom=T Step:=T 0=T Bead:=T pbc="F F F"
C      -47.15440000     -30.32410000     -72.19040000
C      -46.11780000     -30.22710000     -71.22010000
C      -44.80750000     -30.25490000     -71.64460000
C      -44.47370000     -30.49470000     -73.03280000
C      -45.53720000     -30.52610000     -73.96240000
C      -46.89980000     -30.38370000     -73.55450000
H      -48.24020000     -30.29160000     -71.94940000
H      -43.97160000     -30.40250000     -70.94740000
H      -45.26180000     -30.55670000     -75.03490000
H      -47.65840000     -30.47620000     -74.36840000
C      -43.06290000     -30.84280000     -73.25140000
H      -42.52870000     -30.69200000     -72.28610000
H      -42.67590000     -30.14600000     -74.00450000
C      -46.44130000     -30.14850000     -69.79610000
H      -46.68940000     -29.11000000     -69.47160000
H      -47.29620000     -30.70310000     -69.47310000
S      -42.69210000     -32.55910000     -73.94430000
S      -45.05440000     -30.65680000     -68.65420000
C      -43.50830000     -33.82830000     -72.77300000
H      -43.18160000     -34.75810000     -73.19410000
H      -43.04070000     -33.61900000     -71.78960000
C      -45.41310000     -32.49410000     -68.31950000
H      -46.44770000     -32.66730000     -67.96840000
H      -44.69480000     -32.77000000     -67.59170000
C      -45.08510000     -33.25850000     -69.57090000
H      -45.34930000     -32.79570000     -70.50320000
H      -43.91450000     -33.34560000     -69.61660000
C      -45.05030000     -33.85930000     -72.79700000
H      -45.35490000     -33.76010000     -73.84600000
H      -45.55270000     -33.00450000     -72.33010000
C      -45.50100000     -35.20560000     -72.27170000
C      -45.67860000     -36.30560000     -73.05370000
C      -45.70310000     -35.48170000     -70.85970000
H      -45.54040000     -36.22550000     -74.17470000
C      -46.04900000     -36.80940000     -70.60380000
C      -45.62180000     -34.69230000     -69.61500000
C      -45.95000000     -35.44980000     -68.54950000
S      -46.15520000     -37.71060000     -72.20100000
S      -46.45160000     -37.09180000     -68.93260000
H      -45.87490000     -35.19230000     -67.49430000
