40
Properties=species:S:1:pos:R:3 #=T CELL(abcABC):=T 1.889726e+02=T 90.00000=T Traj:=T positionsangstrom=T Step:=T 0=T Bead:=T pbc="F F F"
C      -45.04730000     -35.23040000     -67.91590000
C      -45.26610000     -33.82420000     -67.79560000
C      -44.40830000     -32.90310000     -68.35020000
C      -43.25130000     -33.34430000     -69.01350000
C      -42.98410000     -34.70320000     -69.11410000
C      -43.90140000     -35.61990000     -68.59570000
H      -45.76650000     -35.92210000     -67.58330000
H      -44.80890000     -31.93190000     -68.24310000
H      -42.02160000     -34.96180000     -69.57110000
H      -43.83790000     -36.68580000     -68.87290000
C      -42.40230000     -32.21740000     -69.55220000
H      -41.54220000     -31.94980000     -68.91380000
H      -42.99770000     -31.37280000     -69.56200000
C      -46.51760000     -33.39750000     -67.14700000
H      -47.22860000     -34.21380000     -67.13120000
H      -46.38620000     -33.07810000     -66.08920000
S      -41.52710000     -32.47810000     -71.13500000
S      -47.31080000     -32.02800000     -68.08860000
C      -43.09990000     -32.56390000     -72.12930000
H      -43.87580000     -31.98110000     -71.70700000
H      -42.83610000     -32.02480000     -73.12250000
C      -47.61470000     -32.61490000     -69.79750000
H      -48.19570000     -31.77050000     -70.26990000
H      -48.31870000     -33.52000000     -69.83570000
C      -46.52480000     -32.97300000     -70.80510000
H      -45.76910000     -32.17760000     -70.72930000
H      -46.03920000     -33.95160000     -70.57660000
C      -43.55390000     -34.02440000     -72.42150000
H      -43.60810000     -34.54360000     -71.41510000
H      -42.67170000     -34.48580000     -72.89820000
C      -44.69520000     -34.09360000     -73.39460000
C      -44.42440000     -34.58260000     -74.62070000
C      -46.08040000     -33.62730000     -73.30740000
H      -43.43070000     -34.99850000     -74.80960000
C      -46.70280000     -33.66470000     -74.53710000
C      -46.94520000     -33.10310000     -72.24070000
C      -48.20900000     -32.78550000     -72.74290000
S      -45.73550000     -34.29580000     -75.78890000
S      -48.33940000     -33.04050000     -74.51510000
H      -49.08990000     -32.41510000     -72.22230000
