40
Properties=species:S:1:pos:R:3 #=T CELL(abcABC):=T 1.889726e+02=T 90.00000=T Traj:=T positionsangstrom=T Step:=T 0=T Bead:=T pbc="F F F"
C      -46.24170000     -29.19740000     -71.85000000
C      -45.55820000     -29.77110000     -70.77670000
C      -44.32060000     -30.43130000     -71.06740000
C      -43.86070000     -30.53100000     -72.37160000
C      -44.52510000     -29.85280000     -73.40050000
C      -45.70770000     -29.18950000     -73.16080000
H      -47.21310000     -28.73320000     -71.68530000
H      -43.74670000     -30.88160000     -70.26400000
H      -44.23470000     -29.94180000     -74.41150000
H      -46.36010000     -28.80990000     -73.90440000
C      -42.54200000     -31.30290000     -72.59380000
H      -42.22080000     -31.92750000     -71.79590000
H      -41.74990000     -30.59560000     -72.86320000
C      -46.14200000     -29.84940000     -69.43200000
H      -46.09530000     -28.77940000     -68.96030000
H      -47.26490000     -29.94740000     -69.51310000
S      -42.47350000     -32.61400000     -74.02130000
S      -45.61110000     -31.16890000     -68.23290000
C      -42.99630000     -34.22560000     -73.32830000
H      -42.67360000     -34.96810000     -74.08530000
H      -42.41890000     -34.45140000     -72.42980000
C      -46.74540000     -32.61420000     -68.75680000
H      -47.84620000     -32.28390000     -68.63440000
H      -46.47320000     -33.39750000     -68.04380000
C      -46.28790000     -33.03650000     -70.17760000
H      -46.80730000     -32.39630000     -70.84040000
H      -45.17770000     -32.94850000     -70.31590000
C      -44.51010000     -34.33540000     -73.12170000
H      -44.99120000     -34.29740000     -74.15770000
H      -44.84190000     -33.39150000     -72.69110000
C      -45.01280000     -35.50900000     -72.34120000
C      -44.59780000     -36.82860000     -72.59240000
C      -45.97650000     -35.51610000     -71.22480000
H      -44.01720000     -37.01010000     -73.46100000
C      -46.36350000     -36.83670000     -70.87000000
C      -46.70000000     -34.56480000     -70.42880000
C      -47.62950000     -35.11140000     -69.61510000
S      -45.48840000     -38.08160000     -71.68080000
S      -47.68620000     -36.89220000     -69.75360000
H      -48.16810000     -34.69920000     -68.84930000
