40
Properties=species:S:1:pos:R:3 #=T CELL(abcABC):=T 1.889726e+02=T 90.00000=T Traj:=T positionsangstrom=T Step:=T 0=T Bead:=T pbc="F F F"
C      -45.78310000     -28.91410000     -71.51080000
C      -45.40580000     -29.82410000     -70.50360000
C      -44.30620000     -30.67700000     -70.82140000
C      -43.56690000     -30.62330000     -72.05060000
C      -43.99820000     -29.65250000     -73.01830000
C      -44.99830000     -28.74620000     -72.68880000
H      -46.58780000     -28.20500000     -71.33020000
H      -44.01000000     -31.30830000     -70.05550000
H      -43.43120000     -29.56030000     -73.95190000
H      -45.20440000     -27.91190000     -73.43270000
C      -42.34750000     -31.49830000     -72.29090000
H      -42.15120000     -32.27610000     -71.52240000
H      -41.53820000     -30.81340000     -72.52190000
C      -46.26290000     -29.96720000     -69.18660000
H      -46.01460000     -29.05740000     -68.58340000
H      -47.37170000     -29.86490000     -69.43190000
S      -42.60490000     -32.58940000     -73.80620000
S      -45.90160000     -31.44670000     -68.08150000
C      -42.78630000     -34.31190000     -73.21280000
H      -43.06840000     -34.91550000     -74.07110000
H      -41.83890000     -34.55460000     -72.83410000
C      -46.77570000     -32.82720000     -68.91170000
H      -47.86140000     -32.57740000     -68.69870000
H      -46.48040000     -33.71820000     -68.30640000
C      -46.62940000     -33.05700000     -70.41300000
H      -47.45380000     -32.41460000     -70.80360000
H      -45.67860000     -32.88840000     -70.86310000
C      -43.82370000     -34.31140000     -72.01770000
H      -44.58070000     -33.53070000     -72.17930000
H      -43.30070000     -34.01170000     -71.08180000
C      -44.64120000     -35.57450000     -71.74700000
C      -44.36290000     -36.73860000     -72.33370000
C      -45.97750000     -35.55670000     -71.23160000
H      -43.45330000     -37.09380000     -72.77190000
C      -46.59860000     -36.76650000     -71.47860000
C      -46.86040000     -34.56350000     -70.67150000
C      -48.08240000     -35.12250000     -70.35330000
S      -45.58060000     -37.92150000     -72.22650000
S      -48.21920000     -36.79060000     -70.72300000
H      -48.88540000     -34.68990000     -69.71550000
