40
Properties=species:S:1:pos:R:3 #=T CELL(abcABC):=T 1.889726e+02=T 90.00000=T Traj:=T positionsangstrom=T Step:=T 0=T Bead:=T pbc="F F F"
C      -46.06960000     -31.03560000     -72.24810000
C      -45.31700000     -30.71840000     -71.14880000
C      -45.77000000     -31.09120000     -69.85740000
C      -46.85800000     -31.94160000     -69.69680000
C      -47.56560000     -32.33090000     -70.85230000
C      -47.17560000     -31.87680000     -72.11160000
H      -45.80160000     -30.73640000     -73.28480000
H      -45.20340000     -30.62180000     -69.03160000
H      -48.50530000     -32.79770000     -70.65090000
H      -47.83940000     -32.19300000     -72.91990000
C      -47.14170000     -32.54270000     -68.36550000
H      -48.18850000     -32.43150000     -68.05470000
H      -46.65850000     -32.01020000     -67.58240000
C      -44.09110000     -29.90650000     -71.38540000
H      -44.20420000     -28.90180000     -71.79230000
H      -43.64420000     -29.55530000     -70.44620000
S      -46.63770000     -34.39740000     -68.20940000
S      -42.93020000     -30.97850000     -72.29370000
C      -44.76370000     -34.37830000     -68.58620000
H      -44.62470000     -33.42000000     -69.09140000
H      -44.20480000     -34.50780000     -67.58390000
C      -42.42680000     -32.30190000     -71.09110000
H      -43.05820000     -32.21590000     -70.13780000
H      -41.41220000     -32.19460000     -70.71120000
C      -42.37510000     -33.73170000     -71.63800000
H      -41.52580000     -33.96150000     -72.32960000
H      -42.23700000     -34.40650000     -70.72330000
C      -44.43720000     -35.63740000     -69.40780000
H      -44.78290000     -36.59270000     -68.86980000
H      -43.32500000     -35.85210000     -69.50380000
C      -45.23810000     -35.57810000     -70.73880000
C      -46.52420000     -36.09750000     -70.85940000
C      -44.80560000     -34.86400000     -71.94140000
H      -47.08070000     -36.66980000     -70.12870000
C      -45.83590000     -34.94460000     -72.93090000
C      -43.64580000     -34.11880000     -72.42230000
C      -43.75640000     -33.79370000     -73.77800000
S      -47.29220000     -35.76760000     -72.42040000
S      -45.33800000     -34.14390000     -74.40240000
H      -43.01710000     -33.21420000     -74.27260000
