40
Properties=species:S:1:pos:R:3 #=T CELL(abcABC):=T 1.889726e+02=T 90.00000=T Traj:=T positionsangstrom=T Step:=T 0=T Bead:=T pbc="F F F"
C      -46.04610000     -29.16990000     -71.90560000
C      -45.53260000     -29.95950000     -70.86560000
C      -44.39290000     -30.77840000     -71.11640000
C      -43.75000000     -30.64600000     -72.36790000
C      -44.27350000     -29.85070000     -73.34510000
C      -45.42770000     -29.13710000     -73.18980000
H      -47.01500000     -28.61020000     -71.72210000
H      -43.94650000     -31.60810000     -70.46800000
H      -43.73850000     -29.73910000     -74.24500000
H      -45.80720000     -28.49330000     -73.96100000
C      -42.37020000     -31.37710000     -72.67100000
H      -42.06880000     -31.94520000     -71.78860000
H      -41.61890000     -30.58120000     -72.93940000
C      -46.13750000     -29.86640000     -69.51480000
H      -45.64210000     -29.00710000     -69.05350000
H      -47.18880000     -29.76810000     -69.51800000
S      -42.55260000     -32.55900000     -74.02440000
S      -45.71150000     -31.19700000     -68.28560000
C      -43.01760000     -34.09280000     -73.13260000
H      -42.74800000     -34.94200000     -73.81740000
H      -42.40100000     -34.20210000     -72.26930000
C      -46.63290000     -32.68220000     -68.75380000
H      -47.66190000     -32.80770000     -68.46410000
H      -45.96860000     -33.45660000     -68.26350000
C      -46.64470000     -33.04030000     -70.29750000
H      -47.38300000     -32.44590000     -70.83990000
H      -45.72080000     -32.73970000     -70.79980000
C      -44.54060000     -34.08430000     -72.79320000
H      -45.07450000     -33.85940000     -73.66370000
H      -44.65670000     -33.32290000     -72.07690000
C      -45.05390000     -35.35690000     -72.19090000
C      -44.59430000     -36.60840000     -72.59680000
C      -46.10700000     -35.50580000     -71.21980000
H      -43.80640000     -36.69970000     -73.33030000
C      -46.38790000     -36.84940000     -70.88000000
C      -46.87740000     -34.58330000     -70.44130000
C      -47.74750000     -35.22960000     -69.64090000
S      -45.38490000     -37.99580000     -71.77650000
S      -47.71990000     -36.97800000     -69.68820000
H      -48.55490000     -34.72240000     -69.16930000
