40
Properties=species:S:1:pos:R:3 #=T CELL(abcABC):=T 1.889726e+02=T 90.00000=T Traj:=T positionsangstrom=T Step:=T 0=T Bead:=T pbc="F F F"
C      -48.29820000     -36.29730000     -72.40130000
C      -46.96760000     -36.08050000     -72.73950000
C      -46.00930000     -36.16200000     -71.68160000
C      -46.39490000     -36.44490000     -70.36100000
C      -47.77500000     -36.57210000     -70.05940000
C      -48.72410000     -36.41770000     -71.06560000
H      -49.10720000     -36.29080000     -73.15710000
H      -44.95580000     -36.22840000     -71.74980000
H      -48.15810000     -36.73730000     -69.09190000
H      -49.72980000     -36.48160000     -70.70900000
C      -45.35620000     -36.45390000     -69.18160000
H      -44.28310000     -36.53070000     -69.50930000
H      -45.46000000     -37.36550000     -68.62230000
C      -46.54810000     -36.00280000     -74.16680000
H      -46.37750000     -37.10400000     -74.51740000
H      -47.39560000     -35.59260000     -74.79460000
S      -45.50990000     -35.17080000     -67.97650000
S      -45.02760000     -35.09160000     -74.53260000
C      -45.25880000     -33.62300000     -68.88210000
H      -46.07490000     -33.50940000     -69.67340000
H      -45.52050000     -32.83140000     -68.18620000
C      -45.43600000     -33.32260000     -74.02020000
H      -46.25180000     -33.09080000     -74.66900000
H      -44.60710000     -32.67430000     -74.51660000
C      -45.65770000     -33.15810000     -72.57360000
H      -46.66310000     -33.34500000     -72.29310000
H      -44.96250000     -33.79130000     -71.97730000
C      -43.83630000     -33.54490000     -69.59410000
H      -43.90750000     -34.24500000     -70.43260000
H      -42.99550000     -33.80500000     -68.90060000
C      -43.62960000     -32.12660000     -70.18070000
C      -42.68210000     -31.32490000     -69.61660000
C      -44.39590000     -31.36870000     -71.17030000
H      -42.08250000     -31.40590000     -68.71490000
C      -44.05720000     -29.96760000     -71.19970000
C      -45.31650000     -31.72400000     -72.15530000
C      -45.82490000     -30.61550000     -72.83630000
S      -42.77610000     -29.62600000     -70.16370000
S      -45.12440000     -29.11530000     -72.28170000
H      -46.66060000     -30.55090000     -73.53640000
