40
Properties=species:S:1:pos:R:3 #=T CELL(abcABC):=T 1.889726e+02=T 90.00000=T Traj:=T positionsangstrom=T Step:=T 0=T Bead:=T pbc="F F F"
C      -46.07560000     -31.25730000     -72.32590000
C      -45.38750000     -30.82650000     -71.25810000
C      -45.70850000     -31.32620000     -69.96460000
C      -46.78730000     -32.19000000     -69.76610000
C      -47.57800000     -32.51180000     -70.89790000
C      -47.17040000     -32.15020000     -72.20140000
H      -45.79250000     -30.91960000     -73.35110000
H      -45.08000000     -31.01930000     -69.14520000
H      -48.46900000     -33.18110000     -70.71470000
H      -47.79950000     -32.44720000     -73.03270000
C      -47.11670000     -32.54570000     -68.32340000
H      -48.14700000     -32.86730000     -68.20460000
H      -46.81880000     -31.71270000     -67.72720000
C      -44.18860000     -29.86790000     -71.40920000
H      -44.45440000     -28.98620000     -72.01990000
H      -43.73660000     -29.45120000     -70.44910000
S      -46.18770000     -34.12310000     -67.73210000
S      -42.85230000     -30.80040000     -72.24040000
C      -44.58660000     -34.45740000     -68.67460000
H      -44.51110000     -33.60470000     -69.32370000
H      -43.78570000     -34.42690000     -67.88950000
C      -42.47600000     -32.22680000     -71.09010000
H      -43.37260000     -32.21620000     -70.37670000
H      -41.60780000     -32.02710000     -70.47650000
C      -42.46240000     -33.64600000     -71.81230000
H      -41.76910000     -33.59070000     -72.60990000
H      -42.10300000     -34.41880000     -71.10240000
C      -44.36030000     -35.67230000     -69.64070000
H      -44.47890000     -36.68910000     -69.20090000
H      -43.28550000     -35.55290000     -69.86240000
C      -45.23950000     -35.50910000     -70.82030000
C      -46.44720000     -36.13070000     -70.83770000
C      -44.99790000     -34.79250000     -71.97600000
H      -46.89580000     -36.68570000     -69.98150000
C      -46.03470000     -34.87340000     -72.89980000
C      -43.78940000     -34.06810000     -72.49670000
C      -44.03820000     -33.67940000     -73.81510000
S      -47.33360000     -35.86500000     -72.38710000
S      -45.58360000     -34.15560000     -74.44920000
H      -43.15970000     -33.37920000     -74.39420000
