40
Properties=species:S:1:pos:R:3 #=T CELL(abcABC):=T 1.889726e+02=T 90.00000=T Traj:=T positionsangstrom=T Step:=T 0=T Bead:=T pbc="F F F"
C      -45.79700000     -29.16250000     -72.03890000
C      -45.35260000     -29.97490000     -71.00040000
C      -44.15630000     -30.72620000     -71.20580000
C      -43.44060000     -30.57180000     -72.36560000
C      -43.88730000     -29.70040000     -73.37840000
C      -45.05370000     -28.97110000     -73.20970000
H      -46.67950000     -28.66960000     -71.81160000
H      -43.85550000     -31.44150000     -70.44310000
H      -43.21590000     -29.51310000     -74.23920000
H      -45.45260000     -28.19950000     -73.93640000
C      -42.18780000     -31.36050000     -72.51360000
H      -41.94830000     -31.84050000     -71.54020000
H      -41.36060000     -30.77000000     -72.94870000
C      -46.21110000     -30.04270000     -69.73160000
H      -46.21600000     -29.04490000     -69.17610000
H      -47.27750000     -30.18240000     -69.97950000
S      -42.51440000     -32.54630000     -73.90810000
S      -45.64480000     -31.24850000     -68.44760000
C      -43.31910000     -34.04550000     -73.24710000
H      -43.60330000     -34.48820000     -74.16470000
H      -42.55150000     -34.71330000     -72.78630000
C      -46.75350000     -32.77760000     -68.61560000
H      -47.67690000     -32.50710000     -67.95350000
H      -46.21650000     -33.57280000     -68.11560000
C      -47.00880000     -33.14570000     -70.04640000
H      -47.89700000     -32.64910000     -70.50890000
H      -46.15630000     -32.84050000     -70.64690000
C      -44.50960000     -33.83490000     -72.30170000
H      -45.23760000     -33.07820000     -72.58810000
H      -44.11590000     -33.41830000     -71.38260000
C      -45.17420000     -35.22270000     -72.04440000
C      -44.66430000     -36.42230000     -72.56050000
C      -46.20650000     -35.48530000     -71.10810000
H      -43.99410000     -36.52860000     -73.42100000
C      -46.57210000     -36.82320000     -71.07710000
C      -47.05980000     -34.71430000     -70.18290000
C      -47.87510000     -35.51200000     -69.50080000
S      -45.50250000     -37.83880000     -71.94020000
S      -47.79000000     -37.22690000     -69.84120000
H      -48.54890000     -35.20500000     -68.68670000
