40
Properties=species:S:1:pos:R:3 #=T CELL(abcABC):=T 1.889726e+02=T 90.00000=T Traj:=T positionsangstrom=T Step:=T 0=T Bead:=T pbc="F F F"
C      -45.90330000     -29.18630000     -71.95790000
C      -45.32590000     -29.90180000     -70.86560000
C      -44.15780000     -30.59930000     -71.14040000
C      -43.50370000     -30.56520000     -72.39860000
C      -44.05440000     -29.77150000     -73.40510000
C      -45.27690000     -29.11080000     -73.21860000
H      -46.83720000     -28.57510000     -71.73250000
H      -43.57920000     -30.93690000     -70.25120000
H      -43.53840000     -29.79370000     -74.39120000
H      -45.73320000     -28.60530000     -74.12170000
C      -42.27930000     -31.39190000     -72.61440000
H      -41.90610000     -31.86700000     -71.72200000
H      -41.44490000     -30.78750000     -72.91080000
C      -46.15930000     -29.98070000     -69.67190000
H      -46.29530000     -28.96830000     -69.26980000
H      -47.18230000     -30.27330000     -70.03440000
S      -42.48210000     -32.60430000     -74.04800000
S      -45.66000000     -31.21090000     -68.40070000
C      -43.15150000     -34.06780000     -73.18650000
H      -43.13200000     -34.88630000     -73.90470000
H      -42.48080000     -34.41890000     -72.34980000
C      -46.74330000     -32.73030000     -68.57790000
H      -47.71940000     -32.58190000     -68.07160000
H      -46.29740000     -33.47870000     -67.94290000
C      -47.00530000     -33.10100000     -70.07180000
H      -47.99090000     -32.64210000     -70.33250000
H      -46.25500000     -32.60090000     -70.66080000
C      -44.58840000     -33.88800000     -72.62430000
H      -45.30950000     -33.43480000     -73.38480000
H      -44.64100000     -33.11610000     -71.78400000
C      -45.09560000     -35.23880000     -72.02870000
C      -44.62490000     -36.49270000     -72.49650000
C      -46.07170000     -35.45830000     -71.02560000
H      -43.72910000     -36.65980000     -73.09010000
C      -46.45110000     -36.82040000     -70.94660000
C      -47.02830000     -34.65430000     -70.21950000
C      -47.88840000     -35.42030000     -69.54820000
S      -45.51050000     -37.86980000     -71.91140000
S      -47.74690000     -37.22260000     -69.80810000
H      -48.64130000     -34.89420000     -68.94220000
