40
Properties=species:S:1:pos:R:3 #=T CELL(abcABC):=T 1.889726e+02=T 90.00000=T Traj:=T positionsangstrom=T Step:=T 0=T Bead:=T pbc="F F F"
C      -45.31070000     -31.25210000     -72.33280000
C      -44.77830000     -31.11870000     -71.06540000
C      -45.59500000     -31.41120000     -69.91560000
C      -46.88830000     -31.89520000     -70.12040000
C      -47.46410000     -31.99100000     -71.41700000
C      -46.70750000     -31.54620000     -72.51530000
H      -44.66890000     -30.96480000     -73.17180000
H      -45.26160000     -31.32600000     -68.80850000
H      -48.44340000     -32.38650000     -71.60550000
H      -46.99740000     -31.60070000     -73.60040000
C      -47.57620000     -32.30130000     -68.81130000
H      -48.53420000     -31.92470000     -68.88640000
H      -47.01850000     -31.80420000     -68.02170000
C      -43.44840000     -30.51960000     -70.73000000
H      -43.22700000     -29.57130000     -71.29100000
H      -43.25160000     -30.52060000     -69.64150000
S      -47.67940000     -34.05040000     -68.50670000
S      -42.14780000     -31.62960000     -71.49330000
C      -45.82820000     -34.41830000     -68.27460000
H      -45.28940000     -33.49550000     -68.20470000
H      -45.72430000     -34.89540000     -67.32860000
C      -42.13150000     -33.17800000     -70.51750000
H      -42.89500000     -33.02490000     -69.78250000
H      -41.18940000     -33.31740000     -69.96440000
C      -42.38080000     -34.42120000     -71.27860000
H      -41.49350000     -34.71860000     -71.96260000
H      -42.41820000     -35.14690000     -70.47480000
C      -45.25920000     -35.35620000     -69.31990000
H      -45.38620000     -36.47130000     -69.01700000
H      -44.14390000     -35.18550000     -69.39530000
C      -45.72190000     -35.19830000     -70.84860000
C      -47.00590000     -35.56800000     -71.17650000
C      -44.97860000     -34.72300000     -71.97490000
H      -47.78070000     -35.89900000     -70.53560000
C      -45.82690000     -34.58270000     -73.12580000
C      -43.61570000     -34.35520000     -72.20900000
C      -43.42860000     -33.87420000     -73.49860000
S      -47.43020000     -35.26420000     -72.87710000
S      -44.85900000     -33.92880000     -74.47150000
H      -42.42190000     -33.43370000     -73.84050000
