40
Properties=species:S:1:pos:R:3 #=T CELL(abcABC):=T 1.889726e+02=T 90.00000=T Traj:=T positionsangstrom=T Step:=T 0=T Bead:=T pbc="F F F"
C      -45.53770000     -30.89270000     -72.27620000
C      -44.88750000     -30.92680000     -71.03500000
C      -45.55340000     -31.36120000     -69.85850000
C      -46.87070000     -31.90640000     -69.99160000
C      -47.45380000     -32.00890000     -71.25350000
C      -46.83300000     -31.45020000     -72.37580000
H      -45.02560000     -30.49790000     -73.11790000
H      -45.00850000     -31.17140000     -68.93280000
H      -48.40270000     -32.47060000     -71.33370000
H      -47.44050000     -31.41130000     -73.27190000
C      -47.70020000     -32.35020000     -68.84540000
H      -48.78570000     -32.16560000     -68.98700000
H      -47.56860000     -31.93310000     -67.83650000
C      -43.41070000     -30.45510000     -70.90480000
H      -43.31210000     -29.53310000     -71.37140000
H      -43.23680000     -30.18100000     -69.88410000
S      -47.55430000     -34.23830000     -68.49900000
S      -42.15870000     -31.49040000     -71.70530000
C      -45.75780000     -34.57230000     -68.37610000
H      -45.08170000     -33.67560000     -68.60420000
H      -45.55310000     -34.71700000     -67.27910000
C      -42.08720000     -32.96770000     -70.55420000
H      -42.84740000     -32.89360000     -69.73750000
H      -41.09390000     -33.07520000     -70.06530000
C      -42.42990000     -34.27950000     -71.28030000
H      -41.47700000     -34.59470000     -71.75510000
H      -42.57790000     -35.08680000     -70.53750000
C      -45.27070000     -35.69530000     -69.34680000
H      -45.74720000     -36.63400000     -69.10340000
H      -44.23320000     -35.68010000     -69.21800000
C      -45.65810000     -35.41920000     -70.78940000
C      -46.92310000     -35.68530000     -71.20200000
C      -44.88550000     -34.91330000     -71.90790000
H      -47.58310000     -36.22070000     -70.54120000
C      -45.70340000     -34.71110000     -73.03410000
C      -43.57220000     -34.31340000     -72.25100000
C      -43.47530000     -33.76270000     -73.50950000
S      -47.34040000     -35.24880000     -72.85300000
S      -44.99390000     -33.92220000     -74.41560000
H      -42.60660000     -33.36410000     -74.05590000
