40
Properties=species:S:1:pos:R:3 #=T CELL(abcABC):=T 1.889726e+02=T 90.00000=T Traj:=T positionsangstrom=T Step:=T 0=T Bead:=T pbc="F F F"
C      -45.63680000     -30.79960000     -72.34550000
C      -44.86220000     -30.88730000     -71.13420000
C      -45.44780000     -31.47950000     -70.02660000
C      -46.82790000     -31.84550000     -69.92410000
C      -47.56120000     -31.75120000     -71.15260000
C      -46.91130000     -31.34870000     -72.30800000
H      -45.15360000     -30.31590000     -73.20460000
H      -44.92750000     -31.61850000     -69.11290000
H      -48.58210000     -32.07430000     -71.28490000
H      -47.38650000     -31.44280000     -73.25780000
C      -47.37160000     -32.44920000     -68.64250000
H      -48.54880000     -32.28390000     -68.66710000
H      -46.95870000     -31.97210000     -67.77980000
C      -43.53490000     -30.21800000     -70.99510000
H      -43.53500000     -29.21720000     -71.51930000
H      -43.24730000     -30.04190000     -69.90540000
S      -47.32990000     -34.33280000     -68.41930000
S      -42.22010000     -31.34060000     -71.70120000
C      -45.50750000     -34.57030000     -68.54040000
H      -45.17780000     -33.70280000     -69.06230000
H      -45.13970000     -34.71090000     -67.54990000
C      -42.42770000     -32.71960000     -70.50170000
H      -43.31120000     -32.57510000     -69.87590000
H      -41.59820000     -32.59570000     -69.87480000
C      -42.48600000     -34.15950000     -71.19100000
H      -41.69360000     -34.32080000     -71.84550000
H      -42.53220000     -34.91900000     -70.40300000
C      -45.08540000     -35.76030000     -69.50710000
H      -45.34950000     -36.77330000     -69.06590000
H      -43.96010000     -35.83140000     -69.60640000
C      -45.74240000     -35.58580000     -70.88710000
C      -47.00620000     -35.93200000     -71.25910000
C      -45.06890000     -34.78910000     -71.91920000
H      -47.75970000     -36.40630000     -70.57560000
C      -45.82090000     -34.74760000     -73.05350000
C      -43.68890000     -34.32020000     -72.14280000
C      -43.44950000     -33.88190000     -73.41620000
S      -47.41560000     -35.43220000     -72.89000000
S      -44.92340000     -33.98950000     -74.37890000
H      -42.66690000     -33.36230000     -73.85390000
