40
Properties=species:S:1:pos:R:3 #=T CELL(abcABC):=T 1.889726e+02=T 90.00000=T Traj:=T positionsangstrom=T Step:=T 0=T Bead:=T pbc="F F F"
C      -46.59750000     -36.06870000     -68.12710000
C      -46.25080000     -34.70580000     -68.23470000
C      -44.85000000     -34.42380000     -68.56550000
C      -43.86530000     -35.46320000     -68.44470000
C      -44.27620000     -36.76990000     -68.29900000
C      -45.61050000     -37.06260000     -68.24730000
H      -47.66830000     -36.43360000     -68.17700000
H      -44.45240000     -33.35810000     -68.64170000
H      -43.53680000     -37.48580000     -68.34810000
H      -45.93770000     -38.05930000     -68.26750000
C      -42.45460000     -35.10500000     -68.80440000
H      -41.76450000     -35.61290000     -68.12090000
H      -42.26440000     -34.09640000     -68.63900000
C      -47.30390000     -33.60270000     -68.05440000
H      -47.85280000     -33.78460000     -67.10760000
H      -46.84370000     -32.62500000     -68.03270000
S      -42.17080000     -35.52300000     -70.58700000
S      -48.68030000     -33.45880000     -69.27340000
C      -42.85950000     -34.04820000     -71.52500000
H      -43.29630000     -33.29770000     -70.80980000
H      -41.95540000     -33.65760000     -72.07030000
C      -48.22520000     -32.15000000     -70.54120000
H      -47.56670000     -31.36520000     -70.06110000
H      -49.08970000     -31.48610000     -70.80500000
C      -47.31860000     -32.90760000     -71.64690000
H      -46.59670000     -33.44350000     -71.09290000
H      -47.92670000     -33.70470000     -72.07110000
C      -44.00660000     -34.30240000     -72.46730000
H      -44.85590000     -34.66950000     -71.89520000
H      -43.82300000     -35.12040000     -73.13340000
C      -44.29030000     -33.07760000     -73.30590000
C      -43.33850000     -32.78860000     -74.25400000
C      -45.43780000     -32.15330000     -73.32440000
H      -42.52580000     -33.39300000     -74.58310000
C      -45.18100000     -31.07430000     -74.19110000
C      -46.70970000     -31.97350000     -72.66140000
C      -47.36420000     -30.86790000     -73.14410000
S      -43.71850000     -31.32520000     -75.04830000
S      -46.48540000     -29.99540000     -74.45240000
H      -48.19270000     -30.39550000     -72.72690000
