40
Properties=species:S:1:pos:R:3 #=T CELL(abcABC):=T 1.889726e+02=T 90.00000=T Traj:=T positionsangstrom=T Step:=T 0=T Bead:=T pbc="F F F"
C      -44.86990000     -31.15610000     -71.96770000
C      -44.32270000     -31.11510000     -70.65860000
C      -45.18820000     -31.22170000     -69.58240000
C      -46.55130000     -31.42990000     -69.82250000
C      -47.02390000     -31.59030000     -71.10760000
C      -46.21120000     -31.49480000     -72.21460000
H      -44.23010000     -31.02110000     -72.82000000
H      -44.70190000     -31.29770000     -68.60190000
H      -48.09270000     -31.96740000     -71.20750000
H      -46.60330000     -31.65070000     -73.20090000
C      -47.48080000     -31.81740000     -68.69060000
H      -48.48190000     -31.41890000     -68.84660000
H      -47.05910000     -31.57360000     -67.75580000
C      -42.85040000     -30.97170000     -70.45960000
H      -42.50100000     -29.93180000     -70.76460000
H      -42.60120000     -31.07670000     -69.37160000
S      -47.87490000     -33.59970000     -68.69570000
S      -41.96360000     -32.31020000     -71.40450000
C      -46.24790000     -34.46250000     -68.60460000
H      -45.47860000     -33.69030000     -68.61270000
H      -46.09920000     -34.96990000     -67.69150000
C      -42.29460000     -33.74110000     -70.27140000
H      -43.08180000     -33.44670000     -69.50220000
H      -41.30920000     -33.91330000     -69.76770000
C      -42.76660000     -34.99320000     -71.05850000
H      -41.81890000     -35.38060000     -71.51920000
H      -43.10290000     -35.61690000     -70.28010000
C      -46.03190000     -35.52240000     -69.68600000
H      -46.76140000     -36.38190000     -69.62320000
H      -45.06230000     -35.92800000     -69.50540000
C      -46.23420000     -35.12650000     -71.10580000
C      -47.50900000     -35.25780000     -71.57020000
C      -45.27740000     -34.71660000     -72.03730000
H      -48.46070000     -35.53050000     -71.07220000
C      -45.83250000     -34.45570000     -73.28120000
C      -43.82490000     -34.72140000     -72.18800000
C      -43.34620000     -34.52230000     -73.47500000
S      -47.55540000     -34.50820000     -73.25770000
S      -44.70330000     -34.11230000     -74.54570000
H      -42.29360000     -34.56940000     -73.82740000
