40
Properties=species:S:1:pos:R:3 #=T CELL(abcABC):=T 1.889726e+02=T 90.00000=T Traj:=T positionsangstrom=T Step:=T 0=T Bead:=T pbc="F F F"
C      -48.20190000     -36.01330000     -72.47200000
C      -46.80710000     -36.34300000     -72.73790000
C      -45.95460000     -36.57350000     -71.66200000
C      -46.38050000     -36.54800000     -70.32740000
C      -47.75380000     -36.26830000     -70.10210000
C      -48.67230000     -36.16100000     -71.16550000
H      -48.83810000     -35.97760000     -73.33080000
H      -44.85230000     -36.77490000     -71.85790000
H      -48.12090000     -36.29770000     -69.10790000
H      -49.76200000     -36.11230000     -70.95340000
C      -45.41230000     -36.71530000     -69.22090000
H      -44.45730000     -36.95290000     -69.66270000
H      -45.77510000     -37.57650000     -68.58010000
C      -46.26360000     -36.26600000     -74.24510000
H      -45.92870000     -37.24440000     -74.51190000
H      -47.12630000     -36.06520000     -74.96860000
S      -45.25040000     -35.26070000     -68.05480000
S      -44.85620000     -35.12400000     -74.23200000
C      -45.22780000     -33.73250000     -69.10050000
H      -46.00970000     -33.79120000     -69.86470000
H      -45.70690000     -32.94540000     -68.47860000
C      -45.61460000     -33.43270000     -73.91230000
H      -46.51900000     -33.31500000     -74.58880000
H      -44.95430000     -32.68890000     -74.29670000
C      -46.04520000     -33.03500000     -72.37120000
H      -47.12680000     -33.17360000     -72.21840000
H      -45.66010000     -33.77270000     -71.68410000
C      -43.88270000     -33.45240000     -69.71510000
H      -43.63790000     -34.11660000     -70.53460000
H      -43.04710000     -33.67990000     -68.98970000
C      -43.68810000     -31.97490000     -70.14320000
C      -42.77720000     -31.16090000     -69.57620000
C      -44.48950000     -31.27870000     -71.17310000
H      -42.03600000     -31.44990000     -68.95060000
C      -44.10280000     -30.01940000     -71.34140000
C      -45.56800000     -31.62310000     -72.05960000
C      -46.12610000     -30.52970000     -72.73540000
S      -42.83990000     -29.51930000     -70.15610000
S      -45.15240000     -29.09910000     -72.41500000
H      -46.88980000     -30.61700000     -73.45930000
