40
Properties=species:S:1:pos:R:3 #=T CELL(abcABC):=T 1.889726e+02=T 90.00000=T Traj:=T positionsangstrom=T Step:=T 0=T Bead:=T pbc="F F F"
C      -44.74340000     -31.10740000     -72.33950000
C      -44.12280000     -31.14010000     -71.10900000
C      -44.90540000     -31.37330000     -69.96700000
C      -46.29440000     -31.49170000     -70.06000000
C      -46.92990000     -31.33130000     -71.30360000
C      -46.15100000     -31.16160000     -72.44880000
H      -44.17120000     -30.97290000     -73.20900000
H      -44.29740000     -31.41140000     -69.02000000
H      -47.99480000     -31.35050000     -71.34450000
H      -46.64810000     -31.23670000     -73.39820000
C      -47.07350000     -31.71430000     -68.80310000
H      -48.04110000     -31.13170000     -68.86960000
H      -46.42040000     -31.27940000     -68.03280000
C      -42.60260000     -31.02770000     -71.00160000
H      -42.27000000     -30.55710000     -71.89190000
H      -42.16480000     -30.61070000     -70.20960000
S      -47.50300000     -33.56470000     -68.34200000
S      -41.65420000     -32.71280000     -71.12610000
C      -46.01030000     -34.58070000     -68.56180000
H      -45.13380000     -33.89410000     -68.85430000
H      -45.71120000     -35.07360000     -67.58280000
C      -42.67410000     -33.83980000     -70.08750000
H      -43.60300000     -33.30930000     -69.84630000
H      -42.20470000     -34.10270000     -69.12580000
C      -43.11500000     -35.15200000     -70.92160000
H      -42.16880000     -35.54160000     -71.36490000
H      -43.58920000     -35.86050000     -70.25710000
C      -46.23150000     -35.71000000     -69.66890000
H      -47.12060000     -36.34190000     -69.41680000
H      -45.36100000     -36.29020000     -69.69530000
C      -46.55740000     -35.12870000     -71.01800000
C      -47.77790000     -34.87970000     -71.55550000
C      -45.56350000     -34.79010000     -72.01710000
H      -48.66830000     -35.15150000     -71.01920000
C      -46.10880000     -34.33890000     -73.25920000
C      -44.11330000     -34.86640000     -72.05070000
C      -43.59590000     -34.51880000     -73.32070000
S      -47.81390000     -34.35480000     -73.23790000
S      -44.85100000     -33.98250000     -74.46990000
H      -42.49590000     -34.51480000     -73.58260000
