40
Properties=species:S:1:pos:R:3 #=T CELL(abcABC):=T 1.889726e+02=T 90.00000=T Traj:=T positionsangstrom=T Step:=T 0=T Bead:=T pbc="F F F"
C      -44.75760000     -31.14360000     -72.38340000
C      -44.02220000     -31.28450000     -71.21480000
C      -44.80820000     -31.55580000     -70.01670000
C      -46.18390000     -31.51620000     -70.05680000
C      -46.89790000     -31.38200000     -71.23670000
C      -46.15010000     -31.22160000     -72.45530000
H      -44.25130000     -30.91840000     -73.31750000
H      -44.32280000     -31.63610000     -69.05040000
H      -47.95380000     -31.34860000     -71.23520000
H      -46.68160000     -30.94460000     -73.34860000
C      -46.88490000     -31.66190000     -68.72390000
H      -47.72020000     -31.03950000     -68.67710000
H      -46.31630000     -31.45030000     -67.82070000
C      -42.54900000     -31.16670000     -71.12220000
H      -42.31670000     -30.51480000     -72.06850000
H      -42.18310000     -30.66810000     -70.12180000
S      -47.69680000     -33.27390000     -68.42970000
S      -41.66000000     -32.80940000     -71.28590000
C      -46.20440000     -34.38270000     -68.55650000
H      -45.35170000     -33.76280000     -68.86670000
H      -46.09650000     -34.77130000     -67.60540000
C      -42.49890000     -34.07860000     -70.20090000
H      -43.20800000     -33.56530000     -69.52950000
H      -41.72620000     -34.48200000     -69.51030000
C      -43.03570000     -35.23670000     -71.00850000
H      -42.18700000     -35.81450000     -71.38370000
H      -43.41880000     -35.95040000     -70.25980000
C      -46.34740000     -35.64690000     -69.52740000
H      -47.29980000     -36.21050000     -69.30420000
H      -45.54920000     -36.32020000     -69.42160000
C      -46.49460000     -35.19780000     -70.97810000
C      -47.75400000     -34.99290000     -71.42400000
C      -45.50490000     -34.81020000     -71.94400000
H      -48.72170000     -35.15190000     -70.93730000
C      -46.12160000     -34.40010000     -73.17240000
C      -44.06890000     -34.78780000     -72.02550000
C      -43.62390000     -34.35510000     -73.28910000
S      -47.83060000     -34.26170000     -73.06450000
S      -44.88900000     -34.01380000     -74.47510000
H      -42.56380000     -34.26020000     -73.61300000
