40
Properties=species:S:1:pos:R:3 #=T CELL(abcABC):=T 1.889726e+02=T 90.00000=T Traj:=T positionsangstrom=T Step:=T 0=T Bead:=T pbc="F F F"
C      -45.65770000     -36.52250000     -71.51100000
C      -44.60420000     -36.34510000     -70.62340000
C      -43.52200000     -35.61340000     -71.09070000
C      -43.45170000     -35.16650000     -72.44430000
C      -44.47500000     -35.46540000     -73.35670000
C      -45.60440000     -36.14620000     -72.86420000
H      -46.50420000     -37.08250000     -70.98880000
H      -42.67860000     -35.39210000     -70.43240000
H      -44.43320000     -35.32760000     -74.49700000
H      -46.41830000     -36.55220000     -73.46910000
C      -42.14600000     -34.52160000     -72.95780000
H      -41.59070000     -35.15230000     -73.77950000
H      -41.50090000     -34.54830000     -72.14250000
C      -44.74900000     -36.94030000     -69.23510000
H      -45.46690000     -37.75430000     -69.20270000
H      -43.81140000     -37.47300000     -68.85970000
S      -42.40540000     -32.82310000     -73.65270000
S      -44.90430000     -35.73360000     -67.79000000
C      -42.49710000     -31.64770000     -72.20750000
H      -41.56900000     -31.89180000     -71.69340000
H      -42.29100000     -30.69880000     -72.62020000
C      -46.25760000     -34.60870000     -68.33140000
H      -46.77360000     -34.25220000     -67.44540000
H      -46.99430000     -35.27980000     -68.82640000
C      -45.75750000     -33.48460000     -69.26300000
H      -45.25740000     -32.69340000     -68.63840000
H      -44.98840000     -33.94190000     -69.88640000
C      -43.69820000     -31.77900000     -71.33110000
H      -43.38740000     -31.33560000     -70.28560000
H      -43.95740000     -32.77580000     -71.05540000
C      -45.04630000     -31.27350000     -71.72090000
C      -45.28320000     -30.36090000     -72.69470000
C      -46.33370000     -31.80430000     -71.21460000
H      -44.55550000     -29.87810000     -73.32610000
C      -47.44660000     -31.13300000     -71.81500000
C      -46.73910000     -32.79320000     -70.21790000
C      -48.08560000     -32.92780000     -70.19160000
S      -47.00170000     -29.88480000     -72.95140000
S      -48.93920000     -31.75320000     -71.13110000
H      -48.76140000     -33.52070000     -69.45700000
