40
Properties=species:S:1:pos:R:3 #=T CELL(abcABC):=T 1.889726e+02=T 90.00000=T Traj:=T positionsangstrom=T Step:=T 0=T Bead:=T pbc="F F F"
C      -45.41260000     -36.76830000     -71.56190000
C      -44.42850000     -36.55280000     -70.60260000
C      -43.46500000     -35.60120000     -70.90360000
C      -43.26270000     -35.07140000     -72.16650000
C      -44.25140000     -35.32610000     -73.13590000
C      -45.31930000     -36.18570000     -72.82490000
H      -46.24890000     -37.37270000     -71.43140000
H      -42.63530000     -35.28320000     -70.30320000
H      -44.27360000     -34.93860000     -74.12960000
H      -46.02580000     -36.47120000     -73.59720000
C      -42.10100000     -34.27600000     -72.65600000
H      -41.49260000     -34.85670000     -73.27370000
H      -41.41600000     -33.98660000     -71.81230000
C      -44.57890000     -37.08820000     -69.14470000
H      -45.47610000     -37.78230000     -69.14010000
H      -43.71730000     -37.61150000     -68.69850000
S      -42.58310000     -32.74770000     -73.56060000
S      -44.93810000     -35.73990000     -67.91120000
C      -42.62270000     -31.52190000     -72.16910000
H      -41.74320000     -31.65160000     -71.58310000
H      -42.63930000     -30.62380000     -72.85960000
C      -46.29980000     -34.77930000     -68.72050000
H      -47.02680000     -34.52110000     -67.85790000
H      -46.82600000     -35.48270000     -69.36170000
C      -45.78980000     -33.60950000     -69.48290000
H      -45.18560000     -32.95360000     -68.91340000
H      -45.03870000     -34.04110000     -70.19740000
C      -43.80250000     -31.75770000     -71.27060000
H      -43.64750000     -31.14800000     -70.35840000
H      -43.78960000     -32.84320000     -70.92940000
C      -45.11990000     -31.31760000     -71.79920000
C      -45.31950000     -30.24650000     -72.65120000
C      -46.35750000     -31.75510000     -71.18140000
H      -44.55530000     -29.66350000     -73.07600000
C      -47.43210000     -31.07000000     -71.71770000
C      -46.80660000     -32.80950000     -70.30860000
C      -48.19990000     -32.89080000     -70.21890000
S      -47.04770000     -29.96190000     -73.01700000
S      -48.98970000     -31.73320000     -71.22700000
H      -48.75650000     -33.58180000     -69.62790000
