40
Properties=species:S:1:pos:R:3 #=T CELL(abcABC):=T 1.889726e+02=T 90.00000=T Traj:=T positionsangstrom=T Step:=T 0=T Bead:=T pbc="F F F"
C      -45.88550000     -36.25800000     -71.26840000
C      -44.66860000     -36.45100000     -70.56830000
C      -43.45620000     -35.87020000     -71.09110000
C      -43.61950000     -35.12890000     -72.27350000
C      -44.81500000     -34.88970000     -72.91350000
C      -45.99050000     -35.45480000     -72.41850000
H      -46.75550000     -36.74860000     -70.90540000
H      -42.43810000     -36.04920000     -70.62500000
H      -44.73740000     -34.44940000     -73.87250000
H      -47.05490000     -35.39360000     -72.88870000
C      -42.31990000     -34.53680000     -72.84840000
H      -41.89790000     -35.27520000     -73.57130000
H      -41.55440000     -34.49380000     -72.04570000
C      -44.79630000     -37.05920000     -69.24330000
H      -45.43470000     -37.88630000     -69.13610000
H      -43.84770000     -37.49420000     -68.93940000
S      -42.52270000     -32.86290000     -73.58980000
S      -44.96620000     -35.76280000     -67.90900000
C      -42.40100000     -31.64260000     -72.23180000
H      -41.43400000     -31.74800000     -71.67800000
H      -42.30990000     -30.70340000     -72.73600000
C      -46.18640000     -34.57850000     -68.69210000
H      -46.95220000     -34.33900000     -67.88240000
H      -46.82450000     -35.05410000     -69.39460000
C      -45.56580000     -33.25970000     -69.09400000
H      -45.32370000     -32.67660000     -68.18900000
H      -44.67390000     -33.41850000     -69.63020000
C      -43.62140000     -31.55100000     -71.22800000
H      -43.52590000     -30.66970000     -70.58970000
H      -43.55160000     -32.30050000     -70.51170000
C      -44.97120000     -31.53320000     -71.91990000
C      -45.19940000     -31.08560000     -73.19520000
C      -46.22800000     -31.74110000     -71.23450000
H      -44.37470000     -30.72620000     -73.95520000
C      -47.32590000     -31.26190000     -71.92130000
C      -46.53450000     -32.36680000     -69.97860000
C      -47.87420000     -32.18250000     -69.63500000
S      -46.92390000     -30.83980000     -73.54820000
S      -48.79930000     -31.46920000     -71.01240000
H      -48.22790000     -32.62350000     -68.73740000
