40
Properties=species:S:1:pos:R:3 #=T CELL(abcABC):=T 1.889726e+02=T 90.00000=T Traj:=T positionsangstrom=T Step:=T 0=T Bead:=T pbc="F F F"
C      -45.81800000     -36.54810000     -71.50400000
C      -44.74400000     -36.35800000     -70.59210000
C      -43.66260000     -35.56830000     -71.00120000
C      -43.56000000     -35.09040000     -72.33530000
C      -44.55820000     -35.34230000     -73.26570000
C      -45.67720000     -36.05100000     -72.87520000
H      -46.66130000     -37.15930000     -71.10640000
H      -42.97000000     -35.48960000     -70.25250000
H      -44.40090000     -34.78810000     -74.21120000
H      -46.50250000     -36.20180000     -73.58680000
C      -42.31110000     -34.41620000     -72.84030000
H      -41.68800000     -35.06410000     -73.44550000
H      -41.59910000     -34.24550000     -72.04020000
C      -44.74920000     -36.97990000     -69.18220000
H      -45.65730000     -37.54580000     -69.02590000
H      -43.89770000     -37.57750000     -69.06400000
S      -42.47120000     -32.81590000     -73.74900000
S      -44.91290000     -35.69090000     -67.84520000
C      -42.42870000     -31.61520000     -72.36370000
H      -41.50280000     -31.72630000     -71.82090000
H      -42.64030000     -30.53970000     -72.73040000
C      -46.29520000     -34.62040000     -68.57100000
H      -46.83110000     -34.34870000     -67.68130000
H      -46.95280000     -35.22970000     -69.21430000
C      -45.65290000     -33.44690000     -69.18900000
H      -45.13920000     -32.85700000     -68.46270000
H      -44.77100000     -33.78710000     -69.79280000
C      -43.58190000     -31.85750000     -71.37200000
H      -43.38980000     -31.38730000     -70.47660000
H      -43.55060000     -32.95240000     -71.11500000
C      -44.97850000     -31.39910000     -71.76020000
C      -45.22970000     -30.62810000     -72.85890000
C      -46.24830000     -31.78780000     -71.14460000
H      -44.42540000     -30.15070000     -73.49740000
C      -47.36940000     -31.19250000     -71.76970000
C      -46.63070000     -32.67770000     -70.06390000
C      -47.99760000     -32.71540000     -69.84870000
S      -46.93570000     -30.10290000     -73.05170000
S      -48.86880000     -31.71290000     -71.07800000
H      -48.68520000     -33.27940000     -69.11580000
