40
Properties=species:S:1:pos:R:3 #=T CELL(abcABC):=T 1.889726e+02=T 90.00000=T Traj:=T positionsangstrom=T Step:=T 0=T Bead:=T pbc="F F F"
C      -44.16590000     -29.76190000     -69.29400000
C      -45.17750000     -30.71150000     -69.00380000
C      -44.79320000     -31.99500000     -68.54970000
C      -43.44330000     -32.45230000     -68.60970000
C      -42.45480000     -31.52440000     -68.99250000
C      -42.83680000     -30.22960000     -69.28850000
H      -44.38780000     -28.68810000     -69.37210000
H      -45.59160000     -32.66430000     -68.23620000
H      -41.42170000     -31.86670000     -69.26000000
H      -42.10000000     -29.40870000     -69.40110000
C      -43.06770000     -33.78070000     -68.11730000
H      -43.78490000     -34.29440000     -67.45650000
H      -42.12990000     -33.67130000     -67.52720000
C      -46.65500000     -30.26580000     -68.78350000
H      -46.77540000     -29.96710000     -67.78300000
H      -46.95010000     -29.39900000     -69.48380000
S      -42.58300000     -34.95640000     -69.47240000
S      -47.86370000     -31.61770000     -69.07490000
C      -43.42910000     -34.62500000     -71.05460000
H      -43.73150000     -33.53870000     -71.04250000
H      -42.63170000     -34.73930000     -71.79660000
C      -47.80250000     -31.86900000     -70.89110000
H      -47.52940000     -30.93960000     -71.34750000
H      -48.81310000     -32.16450000     -71.20430000
C      -46.71860000     -33.00240000     -71.25150000
H      -45.72220000     -32.54060000     -71.10920000
H      -46.83780000     -33.80160000     -70.53860000
C      -44.66350000     -35.56700000     -71.19570000
H      -45.48810000     -35.06840000     -70.69560000
H      -44.51160000     -36.53230000     -70.73640000
C      -45.13140000     -35.65290000     -72.61360000
C      -44.64220000     -36.55350000     -73.50300000
C      -46.06230000     -34.67550000     -73.15480000
H      -43.99090000     -37.38880000     -73.26390000
C      -46.27220000     -34.95260000     -74.50590000
C      -46.69810000     -33.54330000     -72.64210000
C      -47.39260000     -32.90270000     -73.64330000
S      -45.21780000     -36.18000000     -75.14520000
S      -47.26660000     -33.70180000     -75.22280000
H      -48.08460000     -32.09450000     -73.54970000
