40
Properties=species:S:1:pos:R:3 #=T CELL(abcABC):=T 1.889726e+02=T 90.00000=T Traj:=T positionsangstrom=T Step:=T 0=T Bead:=T pbc="F F F"
C      -44.31210000     -30.14150000     -69.32450000
C      -45.30670000     -31.01160000     -68.78440000
C      -44.97030000     -32.37030000     -68.45130000
C      -43.66780000     -32.72750000     -68.60300000
C      -42.65120000     -31.90590000     -69.09470000
C      -42.94970000     -30.60500000     -69.52850000
H      -44.59940000     -29.10270000     -69.52490000
H      -45.81250000     -33.07040000     -68.20170000
H      -41.70250000     -32.40850000     -69.21990000
H      -42.29740000     -29.85960000     -69.90170000
C      -43.33090000     -34.12380000     -68.06630000
H      -44.26720000     -34.63890000     -67.81660000
H      -42.78580000     -34.21690000     -67.10470000
C      -46.66550000     -30.45580000     -68.55370000
H      -46.91400000     -30.23720000     -67.48560000
H      -46.73910000     -29.54480000     -69.14070000
S      -42.29070000     -34.98470000     -69.46250000
S      -48.12970000     -31.53580000     -69.11840000
C      -43.14980000     -34.57000000     -71.03380000
H      -43.40230000     -33.51780000     -71.04270000
H      -42.55220000     -34.89860000     -71.88570000
C      -47.81610000     -31.72200000     -70.97420000
H      -47.37720000     -30.82600000     -71.34670000
H      -48.77350000     -31.80690000     -71.48060000
C      -47.03810000     -33.00410000     -71.21150000
H      -46.05980000     -32.92850000     -70.74510000
H      -47.50180000     -33.89030000     -70.72760000
C      -44.51760000     -35.25260000     -71.12710000
H      -45.29700000     -34.67680000     -70.57240000
H      -44.44000000     -36.21520000     -70.61930000
C      -45.01100000     -35.42640000     -72.58870000
C      -44.56230000     -36.35890000     -73.45540000
C      -45.89430000     -34.47020000     -73.15360000
H      -43.77730000     -37.09050000     -73.31680000
C      -46.01190000     -34.59490000     -74.52270000
C      -46.78260000     -33.40220000     -72.65620000
C      -47.37660000     -32.75830000     -73.75320000
S      -45.14450000     -36.06330000     -75.07870000
S      -47.08310000     -33.49710000     -75.33310000
H      -47.95450000     -31.81120000     -73.73180000
