40
Properties=species:S:1:pos:R:3 #=T CELL(abcABC):=T 1.889726e+02=T 90.00000=T Traj:=T positionsangstrom=T Step:=T 0=T Bead:=T pbc="F F F"
C      -43.90250000     -36.81520000     -73.86950000
C      -43.57290000     -36.35050000     -72.57740000
C      -42.89280000     -35.18980000     -72.41310000
C      -42.59200000     -34.38030000     -73.51720000
C      -42.98320000     -34.83250000     -74.77860000
C      -43.50870000     -36.09400000     -75.01800000
H      -44.17940000     -37.80250000     -74.04830000
H      -42.70980000     -34.86400000     -71.36420000
H      -42.55770000     -34.17620000     -75.51050000
H      -43.64790000     -36.59420000     -75.99090000
C      -41.84880000     -33.07130000     -73.39490000
H      -41.00590000     -32.91350000     -74.12300000
H      -41.41560000     -33.11240000     -72.29460000
C      -43.98880000     -37.01630000     -71.26540000
H      -44.30190000     -38.04160000     -71.32630000
H      -43.02830000     -36.97340000     -70.68520000
S      -42.86310000     -31.51080000     -73.47390000
S      -45.19310000     -35.97220000     -70.31750000
C      -43.50810000     -31.36410000     -71.72540000
H      -43.34350000     -32.26320000     -71.14510000
H      -42.96000000     -30.60930000     -71.12670000
C      -46.55440000     -35.73740000     -71.55030000
H      -47.49760000     -36.19400000     -71.21970000
H      -46.26630000     -36.22340000     -72.50710000
C      -46.77470000     -34.16900000     -71.71610000
H      -45.78840000     -33.72530000     -72.03580000
H      -47.37000000     -34.08160000     -72.58450000
C      -45.08400000     -31.17250000     -71.88520000
H      -45.28070000     -32.03260000     -72.52370000
H      -45.36120000     -30.27740000     -72.50020000
C      -45.88320000     -31.11800000     -70.58770000
C      -45.76880000     -30.09290000     -69.68590000
C      -46.94430000     -32.04520000     -70.15200000
H      -45.17760000     -29.26700000     -69.72760000
C      -47.57960000     -31.63330000     -69.01020000
C      -47.39700000     -33.40180000     -70.54820000
C      -48.57940000     -33.76230000     -69.93040000
S      -46.99270000     -30.17680000     -68.40160000
S      -48.94640000     -32.69520000     -68.61710000
H      -49.08550000     -34.71960000     -70.12670000
