40
Properties=species:S:1:pos:R:3 #=T CELL(abcABC):=T 1.889726e+02=T 90.00000=T Traj:=T positionsangstrom=T Step:=T 0=T Bead:=T pbc="F F F"
C      -44.26270000     -29.89430000     -69.31100000
C      -45.24710000     -30.80730000     -68.80170000
C      -44.86140000     -32.12180000     -68.41220000
C      -43.52580000     -32.50570000     -68.52640000
C      -42.55990000     -31.64170000     -69.06770000
C      -42.92410000     -30.33020000     -69.33930000
H      -44.57430000     -28.91410000     -69.71090000
H      -45.60680000     -32.78470000     -67.92000000
H      -41.55120000     -31.87600000     -68.89520000
H      -42.22600000     -29.51990000     -69.70130000
C      -43.18660000     -33.98880000     -68.23640000
H      -44.06010000     -34.53700000     -68.03490000
H      -42.46820000     -33.97340000     -67.37480000
C      -46.67910000     -30.29360000     -68.69890000
H      -46.80150000     -30.11880000     -67.61810000
H      -46.96890000     -29.39190000     -69.21020000
S      -42.23030000     -35.01290000     -69.43880000
S      -47.94220000     -31.64900000     -69.05900000
C      -43.26590000     -34.84220000     -70.99420000
H      -43.29730000     -33.75520000     -71.22180000
H      -42.66230000     -35.28220000     -71.79830000
C      -47.81970000     -31.87200000     -70.90640000
H      -47.42760000     -30.90440000     -71.28550000
H      -48.79670000     -32.04770000     -71.38750000
C      -46.88940000     -33.07220000     -71.29450000
H      -45.84660000     -32.96790000     -71.00020000
H      -47.25910000     -33.97330000     -70.69530000
C      -44.62460000     -35.66380000     -71.09740000
H      -45.40680000     -35.50000000     -70.32680000
H      -44.33310000     -36.69810000     -70.95830000
C      -45.13690000     -35.48620000     -72.54130000
C      -44.67190000     -36.37860000     -73.45850000
C      -46.05930000     -34.49810000     -73.20820000
H      -44.13580000     -37.31310000     -73.20750000
C      -46.12790000     -34.66680000     -74.57560000
C      -46.88110000     -33.39090000     -72.73220000
C      -47.52680000     -32.80400000     -73.81040000
S      -45.24390000     -36.08440000     -75.03740000
S      -47.15980000     -33.54910000     -75.40040000
H      -48.30590000     -32.01670000     -73.79130000
