40
Properties=species:S:1:pos:R:3 #=T CELL(abcABC):=T 1.889726e+02=T 90.00000=T Traj:=T positionsangstrom=T Step:=T 0=T Bead:=T pbc="F F F"
C      -43.27550000     -31.37630000     -72.26370000
C      -43.03160000     -31.60130000     -70.94660000
C      -44.12750000     -31.16790000     -70.10880000
C      -45.25120000     -30.55610000     -70.63540000
C      -45.47270000     -30.42720000     -72.06200000
C      -44.43950000     -30.88210000     -72.85820000
H      -42.51880000     -31.84700000     -72.83300000
H      -44.06650000     -31.19280000     -69.02730000
H      -46.42470000     -29.95440000     -72.36020000
H      -44.44220000     -30.84990000     -73.96130000
C      -46.40230000     -30.17400000     -69.77690000
H      -47.00400000     -29.46460000     -70.34200000
H      -46.02560000     -29.76600000     -68.82980000
C      -41.84300000     -32.32880000     -70.42180000
H      -40.94790000     -31.85100000     -70.85640000
H      -41.85820000     -32.26750000     -69.35890000
S      -47.57150000     -31.57410000     -69.31440000
S      -41.89120000     -34.04330000     -70.90720000
C      -46.45060000     -32.99110000     -68.91100000
H      -45.56080000     -32.81270000     -69.62350000
H      -46.22660000     -33.09040000     -67.80550000
C      -43.12240000     -34.68320000     -69.79070000
H      -43.85790000     -33.88150000     -69.66410000
H      -42.64080000     -35.00550000     -68.89050000
C      -43.79760000     -35.86200000     -70.50900000
H      -43.01910000     -36.44920000     -70.91920000
H      -44.24520000     -36.54680000     -69.82910000
C      -46.99450000     -34.36070000     -69.22540000
H      -47.98220000     -34.41910000     -68.83060000
H      -46.46420000     -35.18500000     -68.72570000
C      -47.14590000     -34.55770000     -70.69170000
C      -48.33610000     -34.29190000     -71.31160000
C      -46.09050000     -34.96340000     -71.65430000
H      -49.25360000     -33.84680000     -70.81510000
C      -46.53990000     -34.85910000     -72.96040000
C      -44.74300000     -35.48190000     -71.64410000
C      -44.28430000     -35.70460000     -72.89770000
S      -48.17560000     -34.35250000     -73.11330000
S      -45.46080000     -35.47660000     -74.18280000
H      -43.30090000     -36.18620000     -72.99790000
