40
Properties=species:S:1:pos:R:3 #=T CELL(abcABC):=T 1.889726e+02=T 90.00000=T Traj:=T positionsangstrom=T Step:=T 0=T Bead:=T pbc="F F F"
C      -43.93440000     -36.70990000     -73.70700000
C      -43.43880000     -36.22230000     -72.50200000
C      -42.71020000     -35.03040000     -72.47610000
C      -42.44850000     -34.32700000     -73.61110000
C      -42.91580000     -34.90700000     -74.83470000
C      -43.66930000     -36.07410000     -74.92120000
H      -44.54170000     -37.59410000     -73.74210000
H      -42.24030000     -34.70680000     -71.56320000
H      -42.77190000     -34.36440000     -75.80710000
H      -44.26250000     -36.47710000     -75.70830000
C      -41.69940000     -33.04130000     -73.55720000
H      -41.15510000     -32.87890000     -74.43930000
H      -41.04290000     -32.96830000     -72.75680000
C      -43.90420000     -37.00350000     -71.24970000
H      -44.40720000     -37.99190000     -71.48880000
H      -43.11790000     -37.21440000     -70.51330000
S      -42.96460000     -31.52900000     -73.49930000
S      -45.22990000     -35.98530000     -70.34270000
C      -43.76210000     -31.65660000     -71.81250000
H      -43.84180000     -32.68280000     -71.41240000
H      -43.12310000     -31.01470000     -71.22840000
C      -46.54630000     -35.57360000     -71.64440000
H      -47.39990000     -36.17050000     -71.43720000
H      -46.15530000     -35.87710000     -72.59620000
C      -46.85730000     -34.13630000     -71.79160000
H      -45.92050000     -33.62520000     -72.05790000
H      -47.61200000     -33.99770000     -72.63270000
C      -45.23970000     -31.07760000     -71.88800000
H      -45.86510000     -31.53900000     -72.65130000
H      -45.14520000     -30.01200000     -72.07290000
C      -46.02910000     -31.04370000     -70.61890000
C      -45.81680000     -30.05900000     -69.63150000
C      -46.88630000     -32.11890000     -70.19200000
H      -45.10990000     -29.33560000     -69.59520000
C      -47.53370000     -31.70530000     -68.99320000
C      -47.35650000     -33.39920000     -70.60160000
C      -48.41000000     -33.83540000     -69.82630000
S      -47.00200000     -30.21200000     -68.33960000
S      -48.82980000     -32.76870000     -68.51390000
H      -48.71980000     -34.84760000     -70.00210000
