40
Properties=species:S:1:pos:R:3 #=T CELL(abcABC):=T 1.889726e+02=T 90.00000=T Traj:=T positionsangstrom=T Step:=T 0=T Bead:=T pbc="F F F"
C      -44.58620000     -30.24820000     -69.50850000
C      -45.70750000     -30.94800000     -69.09820000
C      -45.49710000     -32.16240000     -68.39910000
C      -44.15650000     -32.63070000     -68.18730000
C      -43.08860000     -31.84790000     -68.64530000
C      -43.25650000     -30.65410000     -69.32910000
H      -44.64500000     -29.32710000     -70.12530000
H      -46.37020000     -32.72040000     -68.07700000
H      -42.08700000     -32.16800000     -68.36070000
H      -42.31420000     -30.02720000     -69.57840000
C      -43.98960000     -33.96880000     -67.54520000
H      -44.93110000     -34.51760000     -67.27130000
H      -43.52810000     -33.79500000     -66.54400000
C      -47.10540000     -30.36460000     -69.24990000
H      -47.29630000     -29.81590000     -68.31770000
H      -47.07940000     -29.70390000     -70.06450000
S      -42.99850000     -35.04340000     -68.71290000
S      -48.41650000     -31.55450000     -69.62270000
C      -43.68640000     -34.58400000     -70.38670000
H      -44.28020000     -33.67850000     -70.22780000
H      -42.81210000     -34.16470000     -70.96640000
C      -47.76730000     -32.03710000     -71.31580000
H      -47.78140000     -31.12330000     -71.95410000
H      -48.71060000     -32.56940000     -71.53640000
C      -46.51630000     -32.78660000     -71.40240000
H      -45.64720000     -32.20420000     -71.22740000
H      -46.45860000     -33.56770000     -70.56110000
C      -44.33990000     -35.70120000     -71.21070000
H      -45.36310000     -35.91100000     -70.72950000
H      -43.75440000     -36.65250000     -71.00330000
C      -44.51600000     -35.39620000     -72.62500000
C      -43.89870000     -36.20710000     -73.58300000
C      -45.47040000     -34.47740000     -73.21640000
H      -43.18360000     -36.96050000     -73.42850000
C      -45.43050000     -34.58690000     -74.57850000
C      -46.44330000     -33.43880000     -72.79380000
C      -47.16200000     -32.95650000     -73.87710000
S      -44.33260000     -35.82040000     -75.22100000
S      -46.61420000     -33.61770000     -75.40880000
H      -47.91930000     -32.12340000     -73.93000000
