40
Properties=species:S:1:pos:R:3 #=T CELL(abcABC):=T 1.889726e+02=T 90.00000=T Traj:=T positionsangstrom=T Step:=T 0=T Bead:=T pbc="F F F"
C      -44.65770000     -29.84410000     -68.82600000
C      -45.71110000     -30.74900000     -69.17540000
C      -45.56270000     -32.05220000     -68.65030000
C      -44.40350000     -32.53450000     -68.02780000
C      -43.37440000     -31.60720000     -67.77540000
C      -43.54370000     -30.27190000     -68.12190000
H      -44.81280000     -28.82170000     -69.27730000
H      -46.31560000     -32.85380000     -68.82700000
H      -42.56830000     -31.98750000     -67.26110000
H      -42.84150000     -29.49100000     -67.79890000
C      -44.17470000     -33.98520000     -67.80040000
H      -45.03120000     -34.59920000     -68.14910000
H      -43.89610000     -34.24960000     -66.81520000
C      -46.88370000     -30.18910000     -69.91380000
H      -47.15520000     -29.19510000     -69.58630000
H      -46.62690000     -30.09330000     -70.98690000
S      -42.66150000     -34.49130000     -68.85720000
S      -48.33630000     -31.28840000     -69.91810000
C      -43.09060000     -34.37090000     -70.60500000
H      -43.18710000     -33.39690000     -70.93240000
H      -42.21790000     -34.80110000     -71.10200000
C      -48.05490000     -32.07380000     -71.66490000
H      -47.73150000     -31.14590000     -72.20180000
H      -48.98040000     -32.46920000     -71.99080000
C      -47.05570000     -33.18240000     -71.63600000
H      -46.18190000     -32.76780000     -71.09400000
H      -47.36470000     -34.01220000     -71.03830000
C      -44.36570000     -35.15430000     -70.93910000
H      -45.27430000     -34.75120000     -70.50330000
H      -44.24300000     -36.09650000     -70.41900000
C      -44.58850000     -35.39250000     -72.43950000
C      -43.89650000     -36.34560000     -73.16080000
C      -45.52310000     -34.69480000     -73.25220000
H      -43.33000000     -37.25070000     -72.92480000
C      -45.47660000     -35.04580000     -74.61830000
C      -46.57130000     -33.65670000     -73.01990000
C      -47.08750000     -33.36290000     -74.20790000
S      -44.23810000     -36.26530000     -74.89150000
S      -46.54830000     -34.18170000     -75.67890000
H      -48.05210000     -32.74200000     -74.21550000
