40
Properties=species:S:1:pos:R:3 #=T CELL(abcABC):=T 1.889726e+02=T 90.00000=T Traj:=T positionsangstrom=T Step:=T 0=T Bead:=T pbc="F F F"
C      -44.64100000     -29.66880000     -68.61010000
C      -45.53670000     -30.63020000     -69.19300000
C      -45.30180000     -32.00020000     -68.86250000
C      -44.25930000     -32.41050000     -68.00630000
C      -43.40440000     -31.44350000     -67.49180000
C      -43.61790000     -30.11810000     -67.77310000
H      -44.76370000     -28.55990000     -68.82520000
H      -45.93660000     -32.80330000     -69.21530000
H      -42.60260000     -31.86130000     -66.91580000
H      -42.95860000     -29.42180000     -67.36490000
C      -44.11820000     -33.89970000     -67.84390000
H      -45.04160000     -34.44850000     -68.08640000
H      -43.83960000     -34.12810000     -66.80360000
C      -46.78530000     -30.21900000     -69.98960000
H      -47.11310000     -29.25930000     -69.47980000
H      -46.47860000     -29.90630000     -71.00430000
S      -42.73090000     -34.56760000     -68.85020000
S      -48.16630000     -31.42570000     -69.98810000
C      -43.35430000     -34.29590000     -70.53140000
H      -43.72520000     -33.23500000     -70.55070000
H      -42.49500000     -34.33420000     -71.27910000
C      -48.04680000     -32.18330000     -71.63220000
H      -48.18580000     -31.41970000     -72.45140000
H      -48.89020000     -32.89970000     -71.67940000
C      -46.79440000     -32.97380000     -71.80830000
H      -45.93790000     -32.33800000     -71.58850000
H      -46.85980000     -33.70880000     -70.97580000
C      -44.39470000     -35.36290000     -70.91710000
H      -45.28880000     -35.22810000     -70.33860000
H      -43.98860000     -36.35420000     -70.72680000
C      -44.60980000     -35.35120000     -72.44250000
C      -43.81280000     -36.22370000     -73.20730000
C      -45.52630000     -34.66970000     -73.31160000
H      -43.04900000     -36.94080000     -72.85580000
C      -45.52440000     -35.08980000     -74.68700000
C      -46.57900000     -33.67750000     -73.11880000
C      -47.17940000     -33.32600000     -74.28310000
S      -44.39610000     -36.36230000     -74.90530000
S      -46.71150000     -34.27470000     -75.66810000
H      -48.01800000     -32.58790000     -74.37070000
