40
Properties=species:S:1:pos:R:3 #=T CELL(abcABC):=T 1.889726e+02=T 90.00000=T Traj:=T positionsangstrom=T Step:=T 0=T Bead:=T pbc="F F F"
C      -44.68500000     -29.89750000     -68.87600000
C      -45.72680000     -30.76430000     -69.06290000
C      -45.49790000     -32.09820000     -68.68150000
C      -44.30910000     -32.55150000     -68.14250000
C      -43.22170000     -31.63840000     -68.09520000
C      -43.43550000     -30.29670000     -68.39970000
H      -44.87610000     -28.85070000     -69.08690000
H      -46.39920000     -32.70740000     -68.70640000
H      -42.28210000     -32.07460000     -67.86960000
H      -42.56350000     -29.54310000     -68.40090000
C      -44.01030000     -34.07580000     -67.88560000
H      -44.85960000     -34.73140000     -68.08640000
H      -43.86620000     -34.21800000     -66.80340000
C      -47.03740000     -30.13720000     -69.63890000
H      -47.37620000     -29.46480000     -68.82760000
H      -46.85270000     -29.49730000     -70.49620000
S      -42.55180000     -34.64640000     -68.80670000
S      -48.51760000     -31.28410000     -70.13990000
C      -43.22220000     -34.43620000     -70.56320000
H      -43.48240000     -33.34040000     -70.70520000
H      -42.38070000     -34.62100000     -71.22190000
C      -48.10530000     -32.04420000     -71.75020000
H      -47.60960000     -31.39490000     -72.46210000
H      -48.96730000     -32.18660000     -72.42590000
C      -47.17320000     -33.23270000     -71.61180000
H      -46.26930000     -32.97620000     -70.97940000
H      -47.73300000     -33.95320000     -71.08470000
C      -44.45540000     -35.31760000     -70.82760000
H      -45.32640000     -34.91710000     -70.26720000
H      -44.37830000     -36.39060000     -70.45850000
C      -44.62670000     -35.37270000     -72.36220000
C      -43.79850000     -36.19210000     -73.06440000
C      -45.56140000     -34.65520000     -73.19250000
H      -42.94310000     -36.79050000     -72.78460000
C      -45.48540000     -35.00790000     -74.52160000
C      -46.73060000     -33.76230000     -72.93350000
C      -47.28930000     -33.44270000     -74.08970000
S      -44.12880000     -36.08100000     -74.82700000
S      -46.44120000     -34.07360000     -75.63220000
H      -48.08210000     -32.68370000     -74.15930000
