40
Properties=species:S:1:pos:R:3 #=T CELL(abcABC):=T 1.889726e+02=T 90.00000=T Traj:=T positionsangstrom=T Step:=T 0=T Bead:=T pbc="F F F"
C      -48.10260000     -35.99140000     -72.25950000
C      -46.76370000     -36.21040000     -72.64120000
C      -45.85320000     -36.37820000     -71.60240000
C      -46.20030000     -36.39640000     -70.21950000
C      -47.54310000     -36.22870000     -69.88940000
C      -48.45660000     -35.89800000     -70.91980000
H      -48.81250000     -35.82960000     -72.99050000
H      -44.81140000     -36.46780000     -71.90920000
H      -47.84630000     -36.27540000     -68.90730000
H      -49.51060000     -35.78590000     -70.82940000
C      -45.16010000     -36.55170000     -69.10560000
H      -44.19020000     -36.57600000     -69.59850000
H      -45.25670000     -37.44760000     -68.53960000
C      -46.37240000     -36.19340000     -74.11930000
H      -46.26720000     -37.19660000     -74.61520000
H      -47.19210000     -35.61380000     -74.59940000
S      -45.31560000     -35.18530000     -67.83910000
S      -44.74830000     -35.35520000     -74.49900000
C      -45.28940000     -33.71780000     -68.89520000
H      -46.14820000     -33.97710000     -69.62190000
H      -45.77430000     -32.87670000     -68.41890000
C      -45.12800000     -33.56520000     -74.22160000
H      -45.98710000     -33.31770000     -74.92780000
H      -44.24910000     -32.98360000     -74.59600000
C      -45.44890000     -33.28590000     -72.74910000
H      -46.38440000     -33.75070000     -72.44720000
H      -44.67180000     -33.93120000     -72.27680000
C      -43.91570000     -33.38820000     -69.56740000
H      -43.75480000     -34.07710000     -70.41930000
H      -43.08460000     -33.51650000     -68.82000000
C      -43.91000000     -31.93550000     -70.04340000
C      -43.37270000     -30.96620000     -69.24550000
C      -44.55650000     -31.36220000     -71.19700000
H      -42.72410000     -31.14870000     -68.36300000
C      -44.37240000     -30.03610000     -71.32450000
C      -45.33380000     -31.83210000     -72.32410000
C      -45.69150000     -30.83940000     -73.18420000
S      -43.56170000     -29.35160000     -69.97780000
S      -45.14190000     -29.26780000     -72.75310000
H      -46.35440000     -30.96820000     -74.02310000
