40
Properties=species:S:1:pos:R:3 #=T CELL(abcABC):=T 1.889726e+02=T 90.00000=T Traj:=T positionsangstrom=T Step:=T 0=T Bead:=T pbc="F F F"
C      -48.39940000     -36.38380000     -72.23600000
C      -47.05180000     -36.39520000     -72.63880000
C      -46.05520000     -36.56940000     -71.63500000
C      -46.26500000     -36.34670000     -70.29810000
C      -47.62670000     -36.15090000     -69.95490000
C      -48.70060000     -36.38730000     -70.86210000
H      -49.18700000     -36.38300000     -73.07200000
H      -45.00110000     -36.64490000     -71.92590000
H      -48.02320000     -36.08270000     -68.88520000
H      -49.70400000     -36.33410000     -70.43750000
C      -45.08400000     -36.30410000     -69.35980000
H      -44.21530000     -36.05590000     -69.91040000
H      -44.91820000     -37.32810000     -68.94470000
C      -46.67800000     -36.36970000     -74.08850000
H      -46.78930000     -37.40220000     -74.47730000
H      -47.43940000     -35.80090000     -74.61380000
S      -45.12340000     -35.16070000     -67.95600000
S      -45.03260000     -35.64740000     -74.38180000
C      -45.31650000     -33.57250000     -68.81030000
H      -45.98560000     -33.65670000     -69.65080000
H      -45.86330000     -32.84570000     -68.11230000
C      -45.09490000     -33.79960000     -74.08900000
H      -45.95160000     -33.37080000     -74.62540000
H      -44.18960000     -33.45550000     -74.64330000
C      -45.00440000     -33.41260000     -72.55580000
H      -45.78130000     -33.97130000     -71.99180000
H      -44.04600000     -33.73220000     -72.19270000
C      -43.94990000     -33.07500000     -69.28090000
H      -43.54110000     -33.76610000     -70.09870000
H      -43.19170000     -33.13740000     -68.46140000
C      -43.94400000     -31.65510000     -69.88840000
C      -43.62080000     -30.53820000     -69.11790000
C      -44.37690000     -31.21410000     -71.18960000
H      -43.36370000     -30.61280000     -68.05890000
C      -44.25980000     -29.83350000     -71.38780000
C      -44.96900000     -31.85560000     -72.37750000
C      -45.35820000     -30.95880000     -73.37550000
S      -43.65080000     -29.01170000     -69.98080000
S      -44.85980000     -29.32530000     -72.93130000
H      -45.64990000     -31.09610000     -74.36770000
