40
Properties=species:S:1:pos:R:3 #=T CELL(abcABC):=T 1.889726e+02=T 90.00000=T Traj:=T positionsangstrom=T Step:=T 0=T Bead:=T pbc="F F F"
C      -48.38570000     -36.21950000     -71.94560000
C      -47.07880000     -36.25850000     -72.41670000
C      -46.01980000     -36.38980000     -71.47980000
C      -46.26610000     -36.55300000     -70.08210000
C      -47.64020000     -36.44520000     -69.64520000
C      -48.66950000     -36.32980000     -70.55670000
H      -49.17960000     -36.15740000     -72.63740000
H      -44.97830000     -36.47390000     -71.71440000
H      -47.87990000     -36.63390000     -68.66250000
H      -49.76020000     -36.21660000     -70.37920000
C      -45.19250000     -36.44130000     -69.05560000
H      -44.16590000     -36.52620000     -69.46010000
H      -45.30560000     -37.30600000     -68.36630000
C      -46.84810000     -36.37800000     -73.90700000
H      -46.63830000     -37.39880000     -74.18690000
H      -47.79300000     -36.07270000     -74.48460000
S      -45.30330000     -35.01310000     -67.89390000
S      -45.36100000     -35.51950000     -74.60190000
C      -45.22930000     -33.60520000     -69.12680000
H      -45.72370000     -33.87420000     -70.07770000
H      -45.78030000     -32.88630000     -68.56550000
C      -45.41880000     -33.79150000     -73.99870000
H      -46.43530000     -33.52750000     -73.85230000
H      -45.04510000     -33.21570000     -74.81100000
C      -44.55320000     -33.43800000     -72.83670000
H      -44.76870000     -33.97300000     -71.91970000
H      -43.51010000     -33.76390000     -72.99230000
C      -43.81070000     -33.11250000     -69.38570000
H      -43.28860000     -33.75190000     -70.09830000
H      -43.22420000     -33.11510000     -68.43340000
C      -43.83140000     -31.71490000     -69.95220000
C      -43.66900000     -30.54500000     -69.18700000
C      -44.18450000     -31.27830000     -71.33050000
H      -43.31680000     -30.43690000     -68.09000000
C      -44.21910000     -29.87880000     -71.44100000
C      -44.57720000     -31.91540000     -72.61250000
C      -44.82340000     -31.01030000     -73.58480000
S      -43.96350000     -29.04390000     -69.98060000
S      -44.57180000     -29.35870000     -73.03320000
H      -45.03430000     -31.26520000     -74.64020000
