40
Properties=species:S:1:pos:R:3 #=T CELL(abcABC):=T 1.889726e+02=T 90.00000=T Traj:=T positionsangstrom=T Step:=T 0=T Bead:=T pbc="F F F"
C      -45.44360000     -33.72860000     -68.80670000
C      -46.72690000     -33.40810000     -69.37160000
C      -47.30330000     -34.34260000     -70.19710000
C      -46.71530000     -35.63080000     -70.41340000
C      -45.40060000     -35.90140000     -69.89640000
C      -44.81050000     -34.92180000     -69.14750000
H      -44.81740000     -33.05650000     -68.18520000
H      -48.34170000     -34.21410000     -70.64740000
H      -44.97200000     -36.86230000     -70.24420000
H      -43.76500000     -34.95060000     -68.86510000
C      -47.42860000     -36.66160000     -71.25460000
H      -48.26070000     -37.06230000     -70.63110000
H      -46.68530000     -37.41610000     -71.58070000
C      -47.40460000     -32.06870000     -69.08070000
H      -48.25190000     -31.84190000     -69.82420000
H      -47.87270000     -31.98610000     -68.07300000
S      -48.25630000     -35.89370000     -72.75160000
S      -46.16740000     -30.63900000     -69.04800000
C      -46.78240000     -35.20170000     -73.72390000
H      -46.06760000     -35.98950000     -73.69890000
H      -47.16510000     -35.20740000     -74.79960000
C      -46.41250000     -29.98480000     -70.78040000
H      -45.84380000     -29.02890000     -70.84040000
H      -47.49910000     -29.80700000     -70.81080000
C      -46.06550000     -31.04650000     -71.80960000
H      -46.62610000     -31.98450000     -71.55870000
H      -46.44020000     -30.70830000     -72.81110000
C      -46.25650000     -33.87670000     -73.28980000
H      -46.82490000     -33.49050000     -72.38300000
H      -46.34150000     -33.12760000     -74.11670000
C      -44.79160000     -33.90770000     -72.94740000
C      -43.93070000     -34.97860000     -73.02760000
C      -44.15380000     -32.74150000     -72.35950000
H      -43.93860000     -35.92920000     -73.61280000
C      -42.80180000     -32.85990000     -72.16740000
C      -44.61920000     -31.38380000     -71.92690000
C      -43.59860000     -30.61550000     -71.43080000
S      -42.30490000     -34.54890000     -72.56250000
S      -42.02520000     -31.50620000     -71.47490000
H      -43.56870000     -29.59360000     -71.15890000
