40
Properties=species:S:1:pos:R:3 #=T CELL(abcABC):=T 1.889726e+02=T 90.00000=T Traj:=T positionsangstrom=T Step:=T 0=T Bead:=T pbc="F F F"
C      -46.82020000     -33.56140000     -73.57110000
C      -47.73770000     -33.96210000     -72.59930000
C      -48.07910000     -33.06150000     -71.59550000
C      -47.41230000     -31.78690000     -71.49900000
C      -46.58960000     -31.41480000     -72.55830000
C      -46.35140000     -32.30400000     -73.64410000
H      -46.64400000     -34.40730000     -74.23500000
H      -48.80250000     -33.30640000     -70.75850000
H      -46.09640000     -30.42360000     -72.50040000
H      -45.77130000     -31.92540000     -74.51610000
C      -47.50470000     -31.05580000     -70.14860000
H      -48.40240000     -31.43380000     -69.71140000
H      -47.60650000     -29.94580000     -70.36520000
C      -48.32600000     -35.36670000     -72.53830000
H      -49.45470000     -35.27560000     -72.44220000
H      -48.10260000     -35.85090000     -73.46060000
S      -46.17270000     -31.21530000     -68.93780000
S      -47.70090000     -36.52750000     -71.11110000
C      -45.86320000     -33.05030000     -68.71870000
H      -46.34330000     -33.36020000     -67.78130000
H      -46.47100000     -33.59110000     -69.49260000
C      -45.95110000     -36.68710000     -71.69470000
H      -45.94700000     -36.44050000     -72.75750000
H      -45.64260000     -37.72290000     -71.74170000
C      -45.00650000     -35.84200000     -70.80620000
H      -45.67200000     -35.25270000     -70.23710000
H      -44.34300000     -36.50480000     -70.03880000
C      -44.36480000     -33.35860000     -68.54930000
H      -44.31080000     -34.44980000     -68.43920000
H      -43.98230000     -32.86720000     -67.65960000
C      -43.49710000     -32.94130000     -69.69230000
C      -42.65090000     -31.86230000     -69.63430000
C      -43.52080000     -33.58940000     -70.97750000
H      -42.34380000     -31.37260000     -68.73150000
C      -42.84130000     -32.84170000     -71.92380000
C      -44.11770000     -34.79710000     -71.58480000
C      -43.84740000     -34.92200000     -72.91320000
S      -42.07610000     -31.39800000     -71.26920000
S      -42.96420000     -33.53080000     -73.55770000
H      -44.21200000     -35.65250000     -73.58400000
