40
Properties=species:S:1:pos:R:3 #=T CELL(abcABC):=T 1.889726e+02=T 90.00000=T Traj:=T positionsangstrom=T Step:=T 0=T Bead:=T pbc="F F F"
C      -48.51260000     -35.75100000     -71.95640000
C      -47.38610000     -36.28800000     -72.48720000
C      -46.35580000     -36.59370000     -71.59160000
C      -46.60410000     -36.56080000     -70.21570000
C      -47.86200000     -36.18490000     -69.62820000
C      -48.78240000     -35.76250000     -70.53250000
H      -49.33580000     -35.34120000     -72.56810000
H      -45.31620000     -36.87680000     -71.93070000
H      -47.91340000     -36.14830000     -68.53970000
H      -49.74760000     -35.31460000     -70.28740000
C      -45.33320000     -36.83600000     -69.40880000
H      -44.39160000     -36.88420000     -70.00610000
H      -45.30660000     -37.74550000     -68.79290000
C      -47.14270000     -36.23490000     -73.97150000
H      -46.94980000     -37.26230000     -74.39700000
H      -47.92680000     -35.77740000     -74.54500000
S      -44.99650000     -35.49590000     -68.04280000
S      -45.59130000     -35.18850000     -74.39340000
C      -45.17550000     -33.85850000     -68.93610000
H      -46.09380000     -33.91740000     -69.46420000
H      -45.38460000     -33.06610000     -68.13410000
C      -45.47150000     -33.76460000     -73.18830000
H      -45.68560000     -34.06640000     -72.11780000
H      -46.17130000     -33.02030000     -73.44280000
C      -44.03020000     -33.17190000     -73.29890000
H      -43.26760000     -33.75040000     -72.82100000
H      -43.67800000     -33.22230000     -74.30740000
C      -44.00750000     -33.43440000     -69.70970000
H      -43.90940000     -34.01030000     -70.64160000
H      -43.10990000     -33.69880000     -69.20370000
C      -44.07880000     -31.96090000     -70.07110000
C      -44.14170000     -30.92360000     -69.15620000
C      -44.02370000     -31.31420000     -71.42700000
H      -44.09600000     -31.08850000     -68.05490000
C      -44.15540000     -29.89740000     -71.38800000
C      -44.05700000     -31.70860000     -72.80710000
C      -44.04290000     -30.66610000     -73.71180000
S      -44.14570000     -29.29280000     -69.75760000
S      -44.16390000     -29.12460000     -72.94280000
H      -44.26840000     -30.78850000     -74.76420000
