40
Properties=species:S:1:pos:R:3 #=T CELL(abcABC):=T 1.889726e+02=T 90.00000=T Traj:=T positionsangstrom=T Step:=T 0=T Bead:=T pbc="F F F"
C      -42.57550000     -34.55010000     -73.23660000
C      -42.66760000     -35.30880000     -72.08830000
C      -42.51560000     -34.67330000     -70.83710000
C      -42.05930000     -33.30900000     -70.67310000
C      -41.89720000     -32.60580000     -71.93810000
C      -42.13390000     -33.18930000     -73.19360000
H      -42.58920000     -34.80120000     -74.28170000
H      -42.76770000     -35.22500000     -69.90250000
H      -41.48930000     -31.57040000     -71.92480000
H      -42.02020000     -32.63150000     -74.11630000
C      -41.62380000     -32.76240000     -69.36720000
H      -41.08790000     -31.79020000     -69.59520000
H      -40.93710000     -33.37940000     -68.83650000
C      -43.03880000     -36.70890000     -72.14190000
H      -43.01450000     -37.18850000     -73.09410000
H      -42.29200000     -37.33470000     -71.55010000
S      -43.04890000     -32.39180000     -68.22790000
S      -44.67930000     -36.98240000     -71.19380000
C      -44.43420000     -31.55850000     -69.21090000
H      -44.68330000     -30.66060000     -68.54380000
H      -43.94090000     -31.15570000     -70.16860000
C      -45.76470000     -35.72320000     -72.02670000
H      -46.24620000     -36.15200000     -72.91530000
H      -45.20970000     -34.90650000     -72.31890000
C      -46.88850000     -35.19730000     -71.14880000
H      -47.56460000     -35.97370000     -70.83910000
H      -46.51570000     -34.71960000     -70.19500000
C      -45.55510000     -32.53400000     -69.65560000
H      -46.18420000     -32.81460000     -68.75510000
H      -45.16060000     -33.40390000     -70.17600000
C      -46.54340000     -31.91940000     -70.65480000
C      -46.75220000     -30.57380000     -70.74140000
C      -47.45270000     -32.64830000     -71.51480000
H      -46.09390000     -29.85460000     -70.42250000
C      -48.27680000     -31.83650000     -72.23690000
C      -47.64460000     -34.06120000     -71.85340000
C      -48.72540000     -34.27460000     -72.71170000
S      -48.02100000     -30.19250000     -71.98030000
S      -49.42710000     -32.74980000     -73.19040000
H      -49.14560000     -35.24870000     -72.90720000
