40
Properties=species:S:1:pos:R:3 #=T CELL(abcABC):=T 1.889726e+02=T 90.00000=T Traj:=T positionsangstrom=T Step:=T 0=T Bead:=T pbc="F F F"
C      -48.49100000     -35.29820000     -71.69330000
C      -47.37230000     -35.78580000     -72.29580000
C      -46.38970000     -36.37170000     -71.43090000
C      -46.67080000     -36.54310000     -70.03380000
C      -47.87840000     -36.06230000     -69.51000000
C      -48.82470000     -35.46820000     -70.32580000
H      -49.38930000     -34.94090000     -72.28500000
H      -45.42210000     -36.63850000     -71.77750000
H      -47.97830000     -36.09230000     -68.45890000
H      -49.80960000     -35.06830000     -70.03000000
C      -45.52820000     -36.95260000     -69.13370000
H      -44.75810000     -37.37300000     -69.75640000
H      -45.84310000     -37.71560000     -68.44160000
C      -47.21340000     -35.88870000     -73.81270000
H      -47.56740000     -36.84010000     -74.10920000
H      -47.97030000     -35.23330000     -74.23300000
S      -44.79500000     -35.54200000     -68.15240000
S      -45.50540000     -35.42740000     -74.28600000
C      -45.27610000     -34.01650000     -69.07580000
H      -46.27210000     -34.21400000     -69.58210000
H      -45.43060000     -33.14670000     -68.46050000
C      -45.46320000     -33.71840000     -73.63330000
H      -45.97270000     -33.62930000     -72.69940000
H      -46.08570000     -33.05270000     -74.33880000
C      -44.13680000     -33.05510000     -73.54890000
H      -43.45210000     -33.77240000     -73.08860000
H      -43.69020000     -32.98600000     -74.58470000
C      -44.18480000     -33.60380000     -70.13520000
H      -44.09110000     -34.12890000     -71.07540000
H      -43.14290000     -33.88510000     -69.77420000
C      -44.29560000     -32.07610000     -70.35380000
C      -44.33000000     -31.26040000     -69.26820000
C      -44.22730000     -31.33980000     -71.59510000
H      -44.48730000     -31.52490000     -68.21950000
C      -44.13010000     -29.96230000     -71.39260000
C      -44.06370000     -31.66100000     -72.99110000
C      -43.82930000     -30.55130000     -73.72270000
S      -44.29770000     -29.57250000     -69.65230000
S      -43.79040000     -29.08310000     -72.81590000
H      -43.76980000     -30.54440000     -74.86810000
