40
Properties=species:S:1:pos:R:3 #=T CELL(abcABC):=T 1.889726e+02=T 90.00000=T Traj:=T positionsangstrom=T Step:=T 0=T Bead:=T pbc="F F F"
C      -42.53160000     -34.42060000     -73.50890000
C      -42.48760000     -35.03170000     -72.24900000
C      -42.21200000     -34.33190000     -71.07520000
C      -42.00160000     -32.95840000     -71.16330000
C      -42.11260000     -32.27490000     -72.43290000
C      -42.27190000     -33.04070000     -73.55210000
H      -42.73990000     -35.04120000     -74.35450000
H      -42.14910000     -34.91770000     -70.18810000
H      -41.89340000     -31.23140000     -72.59210000
H      -42.17930000     -32.57440000     -74.55210000
C      -41.68070000     -32.27030000     -69.84710000
H      -41.37940000     -31.21810000     -70.04280000
H      -40.85190000     -32.77560000     -69.35640000
C      -42.73030000     -36.53440000     -72.29340000
H      -42.72800000     -36.79470000     -73.36230000
H      -41.83840000     -37.08540000     -71.92630000
S      -42.99900000     -32.21370000     -68.44370000
S      -44.30610000     -36.83380000     -71.35530000
C      -44.49880000     -31.62330000     -69.28210000
H      -45.26440000     -31.32090000     -68.56810000
H      -44.26280000     -30.65110000     -69.75720000
C      -45.55820000     -35.59370000     -72.00400000
H      -45.91190000     -35.75600000     -73.04420000
H      -45.10220000     -34.57010000     -72.05260000
C      -46.81140000     -35.49580000     -71.09720000
H      -47.25040000     -36.53830000     -71.19330000
H      -46.53410000     -35.35640000     -70.01120000
C      -45.25230000     -32.68190000     -70.16890000
H      -45.70090000     -33.44350000     -69.56490000
H      -44.54150000     -33.12760000     -70.84910000
C      -46.36290000     -32.12560000     -71.00110000
C      -46.53480000     -30.73970000     -71.19170000
C      -47.49450000     -32.90890000     -71.40370000
H      -45.77140000     -29.97480000     -71.13250000
C      -48.52760000     -32.10320000     -71.73960000
C      -47.78420000     -34.37810000     -71.51530000
C      -49.10410000     -34.57340000     -71.83570000
S      -48.10600000     -30.42360000     -71.81760000
S      -50.02570000     -33.00340000     -72.05850000
H      -49.61430000     -35.55440000     -71.79640000
