40
Properties=species:S:1:pos:R:3 #=T CELL(abcABC):=T 1.889726e+02=T 90.00000=T Traj:=T positionsangstrom=T Step:=T 0=T Bead:=T pbc="F F F"
C      -48.50310000     -34.53460000     -71.71670000
C      -47.62040000     -35.55760000     -72.11930000
C      -46.98130000     -36.36850000     -71.21850000
C      -47.02410000     -36.07530000     -69.80470000
C      -47.80800000     -35.04290000     -69.37780000
C      -48.49680000     -34.20420000     -70.34320000
H      -48.94820000     -33.79110000     -72.39810000
H      -46.39620000     -37.27770000     -71.56110000
H      -47.87200000     -34.82770000     -68.30760000
H      -49.06680000     -33.36130000     -69.96840000
C      -46.12160000     -36.88610000     -68.90580000
H      -45.99640000     -37.90060000     -69.25850000
H      -46.51800000     -36.81000000     -67.92340000
C      -47.49450000     -35.68300000     -73.64900000
H      -47.61220000     -36.73450000     -73.90260000
H      -48.26670000     -35.09290000     -74.10290000
S      -44.28030000     -36.36830000     -69.15050000
S      -45.82140000     -35.11910000     -74.31130000
C      -44.21480000     -34.54600000     -69.04190000
H      -44.81140000     -34.13990000     -68.21700000
H      -43.17990000     -34.24960000     -68.89180000
C      -45.49910000     -33.57260000     -73.37410000
H      -45.89650000     -33.66340000     -72.33300000
H      -45.93270000     -32.63760000     -73.91610000
C      -43.94490000     -33.20660000     -73.42430000
H      -43.34100000     -34.01280000     -72.98820000
H      -43.66050000     -33.09690000     -74.54100000
C      -44.62490000     -33.82290000     -70.31090000
H      -45.69660000     -33.90560000     -70.55170000
H      -44.03760000     -34.34580000     -71.16610000
C      -44.45860000     -32.29060000     -70.25370000
C      -44.75850000     -31.42070000     -69.22400000
C      -44.10060000     -31.55400000     -71.41260000
H      -45.26790000     -31.56950000     -68.31140000
C      -44.02550000     -30.14100000     -71.23250000
C      -43.75610000     -31.92450000     -72.77060000
C      -43.48500000     -30.86270000     -73.59890000
S      -44.52500000     -29.63810000     -69.67440000
S      -43.50850000     -29.29440000     -72.67320000
H      -43.39160000     -30.97870000     -74.62610000
