40
Properties=species:S:1:pos:R:3 #=T CELL(abcABC):=T 1.889726e+02=T 90.00000=T Traj:=T positionsangstrom=T Step:=T 0=T Bead:=T pbc="F F F"
C      -47.02900000     -33.66110000     -73.59030000
C      -47.73930000     -34.11950000     -72.50760000
C      -47.85350000     -33.29000000     -71.33750000
C      -47.34420000     -31.98940000     -71.32940000
C      -46.58890000     -31.59310000     -72.46360000
C      -46.32550000     -32.48780000     -73.48850000
H      -46.97820000     -34.23780000     -74.48070000
H      -48.48810000     -33.76780000     -70.57480000
H      -46.12840000     -30.62290000     -72.41560000
H      -45.55490000     -32.12990000     -74.21620000
C      -47.64230000     -31.12880000     -70.13510000
H      -48.47880000     -31.50690000     -69.54880000
H      -47.83970000     -30.05190000     -70.27110000
C      -48.39590000     -35.46710000     -72.54960000
H      -49.45590000     -35.40040000     -72.41620000
H      -48.32990000     -36.05290000     -73.50760000
S      -46.07100000     -31.12460000     -69.20760000
S      -47.74560000     -36.52420000     -71.24120000
C      -45.91680000     -32.88550000     -68.94030000
H      -46.66790000     -33.21550000     -68.27420000
H      -45.90140000     -33.48290000     -69.84440000
C      -45.90270000     -36.65330000     -71.68180000
H      -45.85250000     -36.50070000     -72.74810000
H      -45.64920000     -37.70750000     -71.46360000
C      -44.88520000     -35.80640000     -70.82980000
H      -45.31790000     -35.47090000     -69.95650000
H      -44.21800000     -36.56410000     -70.36800000
C      -44.49120000     -33.24450000     -68.53400000
H      -44.44520000     -34.30240000     -68.30490000
H      -44.20770000     -32.72520000     -67.62290000
C      -43.58400000     -32.94090000     -69.66090000
C      -42.73950000     -31.84230000     -69.55530000
C      -43.61120000     -33.47140000     -71.00770000
H      -42.58120000     -31.20340000     -68.69950000
C      -42.77900000     -32.78120000     -71.89860000
C      -44.25480000     -34.66050000     -71.60650000
C      -44.01370000     -34.69970000     -72.97330000
S      -41.94370000     -31.49740000     -71.08930000
S      -42.91330000     -33.39130000     -73.54550000
H      -44.36470000     -35.32050000     -73.80100000
