40
Properties=species:S:1:pos:R:3 #=T CELL(abcABC):=T 1.889726e+02=T 90.00000=T Traj:=T positionsangstrom=T Step:=T 0=T Bead:=T pbc="F F F"
C      -42.33560000     -34.00290000     -73.82990000
C      -42.41610000     -34.77430000     -72.66730000
C      -42.34100000     -34.14170000     -71.44300000
C      -41.91130000     -32.81050000     -71.36650000
C      -41.69070000     -32.08440000     -72.49040000
C      -41.83230000     -32.66930000     -73.73750000
H      -42.31250000     -34.54070000     -74.81880000
H      -42.42310000     -34.78090000     -70.61240000
H      -41.36260000     -31.03060000     -72.33610000
H      -41.64890000     -32.22350000     -74.73280000
C      -41.60610000     -32.09620000     -70.03830000
H      -41.65600000     -31.01480000     -70.29220000
H      -40.71230000     -32.44130000     -69.57170000
C      -42.76870000     -36.23720000     -72.81080000
H      -43.05030000     -36.42860000     -73.89890000
H      -41.86120000     -36.91200000     -72.61480000
S      -42.94910000     -32.27840000     -68.77900000
S      -44.16030000     -36.79370000     -71.69690000
C      -44.39450000     -31.33750000     -69.54370000
H      -45.12630000     -31.11120000     -68.74080000
H      -44.06920000     -30.37100000     -69.99040000
C      -45.39360000     -35.44730000     -71.94600000
H      -45.86970000     -35.51910000     -72.94220000
H      -44.80340000     -34.51550000     -72.02690000
C      -46.46160000     -35.40050000     -70.80840000
H      -46.92090000     -36.37340000     -70.69150000
H      -45.85170000     -35.32250000     -69.92230000
C      -45.08380000     -32.18730000     -70.66950000
H      -44.95800000     -33.27240000     -70.42810000
H      -44.54790000     -31.93060000     -71.60980000
C      -46.60690000     -31.92480000     -70.87230000
C      -47.17020000     -30.67730000     -70.93000000
C      -47.52900000     -32.95740000     -71.06900000
H      -46.68780000     -29.73700000     -70.77970000
C      -48.79110000     -32.51850000     -71.38760000
C      -47.53960000     -34.39870000     -71.01590000
C      -48.80920000     -34.92880000     -71.13930000
S      -48.89970000     -30.77300000     -71.39700000
S      -49.99530000     -33.70430000     -71.55480000
H      -48.99020000     -35.90360000     -71.38230000
