40
Properties=species:S:1:pos:R:3 #=T CELL(abcABC):=T 1.889726e+02=T 90.00000=T Traj:=T positionsangstrom=T Step:=T 0=T Bead:=T pbc="F F F"
C      -48.63350000     -34.24000000     -71.46770000
C      -47.86550000     -35.21080000     -72.12460000
C      -47.10900000     -36.05740000     -71.33320000
C      -47.11950000     -35.90370000     -69.93620000
C      -47.87020000     -34.91480000     -69.28480000
C      -48.57350000     -34.00490000     -70.05590000
H      -49.10550000     -33.43350000     -72.06670000
H      -46.42610000     -36.76960000     -71.80840000
H      -47.72250000     -34.73190000     -68.18840000
H      -49.12930000     -33.21380000     -69.52620000
C      -46.40000000     -36.89080000     -69.09320000
H      -46.41840000     -37.89740000     -69.46410000
H      -46.84480000     -36.95320000     -68.09710000
C      -47.82140000     -35.28290000     -73.64620000
H      -48.02420000     -36.30560000     -74.01330000
H      -48.63570000     -34.63280000     -74.09190000
S      -44.50080000     -36.55450000     -69.14560000
S      -46.02100000     -35.01010000     -74.19060000
C      -44.42260000     -34.70240000     -69.01270000
H      -45.40900000     -34.39120000     -68.62440000
H      -43.64140000     -34.32550000     -68.28370000
C      -45.69420000     -33.27240000     -73.95840000
H      -46.35190000     -32.84130000     -73.08200000
H      -45.98890000     -32.50340000     -74.79760000
C      -44.19000000     -33.09640000     -73.70990000
H      -43.80360000     -33.91310000     -73.03710000
H      -43.57790000     -33.22660000     -74.61860000
C      -44.35590000     -34.03930000     -70.38320000
H      -45.16380000     -34.23840000     -71.10350000
H      -43.48400000     -34.48500000     -70.83360000
C      -44.20690000     -32.54920000     -70.40350000
C      -44.32400000     -31.76810000     -69.27310000
C      -43.91630000     -31.72200000     -71.52620000
H      -44.65740000     -32.22170000     -68.29940000
C      -43.76230000     -30.38550000     -71.17930000
C      -43.93800000     -31.82200000     -72.96960000
C      -43.57140000     -30.63300000     -73.63200000
S      -43.88840000     -30.05730000     -69.48200000
S      -43.34770000     -29.30990000     -72.48570000
H      -43.30500000     -30.30430000     -74.67450000
