40
Properties=species:S:1:pos:R:3 #=T CELL(abcABC):=T 1.889726e+02=T 90.00000=T Traj:=T positionsangstrom=T Step:=T 0=T Bead:=T pbc="F F F"
C      -48.69400000     -33.98210000     -71.70050000
C      -47.86820000     -35.04460000     -72.14170000
C      -47.18760000     -35.83250000     -71.23330000
C      -47.34160000     -35.69530000     -69.86230000
C      -48.20060000     -34.67260000     -69.38280000
C      -48.81950000     -33.80000000     -70.32170000
H      -49.10270000     -33.30060000     -72.50100000
H      -46.46080000     -36.60280000     -71.73220000
H      -48.30490000     -34.63300000     -68.34400000
H      -49.36140000     -32.95500000     -69.94420000
C      -46.60650000     -36.57950000     -68.86620000
H      -46.98120000     -37.62180000     -69.03540000
H      -46.76060000     -36.38100000     -67.86210000
C      -47.86310000     -35.29710000     -73.61760000
H      -48.11960000     -36.32240000     -73.81990000
H      -48.61320000     -34.79220000     -74.21890000
S      -44.73910000     -36.53900000     -69.17460000
S      -46.21260000     -35.09410000     -74.40320000
C      -44.21260000     -34.76030000     -68.97370000
H      -44.99360000     -34.18540000     -68.39720000
H      -43.28940000     -34.95620000     -68.40440000
C      -45.67220000     -33.50230000     -73.62500000
H      -46.18200000     -33.41290000     -72.65100000
H      -46.19370000     -32.68530000     -74.22500000
C      -44.19940000     -33.18150000     -73.65420000
H      -43.79040000     -34.02800000     -73.07130000
H      -43.90910000     -33.27680000     -74.77110000
C      -44.03000000     -34.06700000     -70.33140000
H      -44.99960000     -34.28760000     -70.79050000
H      -43.26740000     -34.66430000     -70.82700000
C      -43.80200000     -32.59410000     -70.32440000
C      -43.53870000     -31.94590000     -69.17090000
C      -43.92460000     -31.74980000     -71.48440000
H      -43.19170000     -32.26280000     -68.22670000
C      -43.74900000     -30.43740000     -71.13270000
C      -43.92450000     -31.88970000     -72.91920000
C      -43.83450000     -30.73580000     -73.60690000
S      -43.35400000     -30.16110000     -69.43870000
S      -43.57870000     -29.38660000     -72.56300000
H      -43.78570000     -30.76970000     -74.66080000
