40
Properties=species:S:1:pos:R:3 #=T CELL(abcABC):=T 1.889726e+02=T 90.00000=T Traj:=T positionsangstrom=T Step:=T 0=T Bead:=T pbc="F F F"
C      -49.02840000     -34.15170000     -71.78910000
C      -48.07800000     -35.10900000     -72.19780000
C      -47.26620000     -35.77930000     -71.27100000
C      -47.26880000     -35.51520000     -69.88830000
C      -48.16000000     -34.48320000     -69.49380000
C      -49.05310000     -33.86840000     -70.42620000
H      -49.72200000     -33.67890000     -72.46300000
H      -46.59650000     -36.54840000     -71.58900000
H      -48.15890000     -34.29770000     -68.43360000
H      -49.87390000     -33.25630000     -70.13920000
C      -46.46920000     -36.29690000     -68.83250000
H      -46.92110000     -37.30260000     -68.69460000
H      -46.55330000     -35.80270000     -67.80600000
C      -47.95890000     -35.47750000     -73.63730000
H      -48.04330000     -36.60480000     -73.69680000
H      -48.70280000     -34.93660000     -74.22340000
S      -44.69510000     -36.55800000     -69.25610000
S      -46.26020000     -35.12530000     -74.33320000
C      -44.14720000     -34.76910000     -68.97880000
H      -44.80840000     -34.17220000     -68.37050000
H      -43.19700000     -35.00800000     -68.45700000
C      -45.84460000     -33.33610000     -73.76980000
H      -46.48320000     -33.01510000     -72.94790000
H      -46.06520000     -32.71650000     -74.65120000
C      -44.33900000     -33.30570000     -73.49380000
H      -44.09200000     -34.00480000     -72.72600000
H      -43.73820000     -33.61880000     -74.29870000
C      -43.91780000     -34.12530000     -70.33420000
H      -44.93960000     -34.13860000     -70.87630000
H      -43.32330000     -34.68480000     -70.98800000
C      -43.60200000     -32.62040000     -70.28410000
C      -43.40800000     -31.90040000     -69.15890000
C      -43.68180000     -31.76670000     -71.44860000
H      -43.22320000     -32.18550000     -68.15190000
C      -43.37890000     -30.42390000     -71.12890000
C      -43.97600000     -31.94710000     -72.86490000
C      -44.05570000     -30.74220000     -73.49530000
S      -43.15070000     -30.16920000     -69.46540000
S      -43.67660000     -29.40050000     -72.48440000
H      -44.13780000     -30.65210000     -74.53420000
