40
Properties=species:S:1:pos:R:3 #=T CELL(abcABC):=T 1.889726e+02=T 90.00000=T Traj:=T positionsangstrom=T Step:=T 0=T Bead:=T pbc="F F F"
C      -48.94140000     -34.22160000     -71.69980000
C      -48.07320000     -35.24680000     -72.17290000
C      -47.34700000     -35.87920000     -71.23120000
C      -47.41860000     -35.62390000     -69.83080000
C      -48.29660000     -34.57510000     -69.41960000
C      -48.99370000     -33.86470000     -70.36140000
H      -49.41230000     -33.66630000     -72.50160000
H      -46.67460000     -36.70540000     -71.60120000
H      -48.31160000     -34.20730000     -68.39520000
H      -49.61570000     -33.01120000     -70.09430000
C      -46.63770000     -36.30600000     -68.74810000
H      -47.05400000     -37.32750000     -68.57720000
H      -46.63560000     -35.73150000     -67.75420000
C      -47.88190000     -35.51790000     -73.69210000
H      -48.05280000     -36.58600000     -73.89500000
H      -48.71380000     -35.01890000     -74.24960000
S      -44.84360000     -36.57520000     -69.19710000
S      -46.21730000     -35.05130000     -74.30110000
C      -44.22940000     -34.84190000     -69.20150000
H      -44.91910000     -34.21280000     -68.64850000
H      -43.27710000     -34.80200000     -68.67520000
C      -46.04270000     -33.36990000     -73.62670000
H      -46.34040000     -33.39830000     -72.58230000
H      -46.72390000     -32.69700000     -74.16420000
C      -44.56950000     -32.87950000     -73.69970000
H      -43.80830000     -33.63130000     -73.33900000
H      -44.22790000     -32.64400000     -74.78720000
C      -44.09650000     -34.17280000     -70.55890000
H      -45.06530000     -34.18410000     -71.13040000
H      -43.41880000     -34.88740000     -71.17130000
C      -43.59710000     -32.70580000     -70.56900000
C      -42.98820000     -32.19860000     -69.43770000
C      -43.80320000     -31.66220000     -71.57120000
H      -42.91330000     -32.72470000     -68.50820000
C      -43.46350000     -30.43830000     -71.03610000
C      -44.13700000     -31.67860000     -72.93320000
C      -44.19710000     -30.36810000     -73.40250000
S      -42.68890000     -30.47580000     -69.45580000
S      -43.60100000     -29.21180000     -72.27890000
H      -44.27810000     -30.04590000     -74.38130000
