40
Properties=species:S:1:pos:R:3 #=T CELL(abcABC):=T 1.889726e+02=T 90.00000=T Traj:=T positionsangstrom=T Step:=T 0=T Bead:=T pbc="F F F"
C      -48.89600000     -34.06950000     -71.49340000
C      -48.15540000     -35.17460000     -72.03340000
C      -47.28190000     -35.86350000     -71.12910000
C      -47.23420000     -35.64530000     -69.76970000
C      -47.97600000     -34.56920000     -69.31570000
C      -48.78600000     -33.78280000     -70.15380000
H      -49.55300000     -33.38000000     -72.03020000
H      -46.59520000     -36.62190000     -71.55210000
H      -47.91400000     -34.40550000     -68.22400000
H      -49.48130000     -33.10830000     -69.70050000
C      -46.35790000     -36.50370000     -68.85100000
H      -46.66340000     -37.55440000     -68.78080000
H      -46.41130000     -36.08830000     -67.83020000
C      -48.08440000     -35.42770000     -73.53170000
H      -48.31980000     -36.48980000     -73.75470000
H      -48.92540000     -34.85140000     -74.03340000
S      -44.58000000     -36.66730000     -69.38370000
S      -46.46160000     -34.98680000     -74.20890000
C      -43.93090000     -34.93090000     -69.24070000
H      -44.36870000     -34.53660000     -68.37690000
H      -42.88060000     -34.92240000     -69.13710000
C      -46.03840000     -33.39660000     -73.40280000
H      -46.27470000     -33.36870000     -72.33230000
H      -46.59990000     -32.57570000     -73.81350000
C      -44.58860000     -32.97340000     -73.79070000
H      -43.92450000     -33.85060000     -73.65430000
H      -44.57930000     -32.85280000     -74.90110000
C      -44.38200000     -34.11520000     -70.42160000
H      -45.45220000     -34.17210000     -70.49720000
H      -44.07430000     -34.59420000     -71.34230000
C      -43.89700000     -32.62540000     -70.39770000
C      -43.47550000     -32.00550000     -69.26980000
C      -43.82330000     -31.73590000     -71.59400000
H      -43.50000000     -32.34140000     -68.22550000
C      -43.43520000     -30.45140000     -71.25430000
C      -44.12610000     -31.78650000     -73.04540000
C      -43.92070000     -30.59230000     -73.62120000
S      -42.99140000     -30.30500000     -69.48760000
S      -43.43470000     -29.29800000     -72.53000000
H      -44.07470000     -30.40560000     -74.71290000
