40
Properties=species:S:1:pos:R:3 #=T CELL(abcABC):=T 1.889726e+02=T 90.00000=T Traj:=T positionsangstrom=T Step:=T 0=T Bead:=T pbc="F F F"
C      -48.50870000     -33.72240000     -71.06990000
C      -47.99320000     -34.80070000     -71.85680000
C      -47.35040000     -35.87010000     -71.22650000
C      -47.30940000     -35.90090000     -69.77960000
C      -47.89150000     -34.89220000     -68.98820000
C      -48.45930000     -33.75150000     -69.64890000
H      -48.83270000     -32.79240000     -71.57410000
H      -46.81700000     -36.69520000     -71.76600000
H      -47.77500000     -35.15100000     -67.91150000
H      -48.85450000     -32.89820000     -69.10220000
C      -46.43610000     -37.04980000     -69.08400000
H      -46.58780000     -38.05720000     -69.52240000
H      -46.65160000     -37.06610000     -68.01600000
C      -48.16630000     -35.03220000     -73.33980000
H      -48.46200000     -36.06140000     -73.42460000
H      -48.94610000     -34.32430000     -73.66300000
S      -44.56190000     -36.71360000     -69.40800000
S      -46.66470000     -34.81070000     -74.36410000
C      -44.30560000     -34.87980000     -69.16490000
H      -44.89050000     -34.46050000     -68.37430000
H      -43.26660000     -34.76680000     -68.88750000
C      -46.05790000     -33.14700000     -73.89500000
H      -46.36450000     -32.95900000     -72.88020000
H      -46.44220000     -32.35240000     -74.58520000
C      -44.49190000     -33.10670000     -73.87300000
H      -44.02380000     -34.00050000     -73.50370000
H      -44.05690000     -33.07810000     -74.95690000
C      -44.54210000     -34.03390000     -70.55570000
H      -45.56070000     -33.92640000     -70.86410000
H      -44.07860000     -34.61240000     -71.39240000
C      -44.01160000     -32.65360000     -70.45580000
C      -43.68880000     -32.00810000     -69.30770000
C      -43.71540000     -31.83160000     -71.58860000
H      -43.77640000     -32.49510000     -68.34060000
C      -43.28230000     -30.51050000     -71.18740000
C      -43.99550000     -31.88970000     -73.04250000
C      -43.75260000     -30.71530000     -73.70370000
S      -43.04440000     -30.32050000     -69.49290000
S      -43.36560000     -29.35420000     -72.53190000
H      -43.96020000     -30.52070000     -74.72250000
