40
Properties=species:S:1:pos:R:3 #=T CELL(abcABC):=T 1.889726e+02=T 90.00000=T Traj:=T positionsangstrom=T Step:=T 0=T Bead:=T pbc="F F F"
C      -44.57080000     -36.77770000     -69.91490000
C      -43.50660000     -35.94290000     -69.69930000
C      -42.86760000     -35.41020000     -70.85350000
C      -43.29850000     -35.64460000     -72.16120000
C      -44.45290000     -36.37820000     -72.29450000
C      -45.03300000     -37.01280000     -71.22480000
H      -45.02660000     -37.16460000     -69.06380000
H      -42.03300000     -34.80240000     -70.69640000
H      -44.86930000     -36.57930000     -73.26080000
H      -45.81440000     -37.71580000     -71.35170000
C      -42.48430000     -35.15360000     -73.28450000
H      -42.19140000     -35.88390000     -74.05970000
H      -41.62050000     -34.57310000     -72.96670000
C      -43.19530000     -35.43810000     -68.29250000
H      -43.89210000     -35.89240000     -67.57500000
H      -42.16820000     -35.63580000     -67.88330000
S      -43.53800000     -33.94100000     -74.23130000
S      -43.39620000     -33.63340000     -68.16790000
C      -43.34460000     -32.23150000     -73.33170000
H      -42.28790000     -32.34400000     -72.97030000
H      -43.41970000     -31.47930000     -74.07830000
C      -45.20220000     -33.38460000     -68.79980000
H      -45.85410000     -33.68830000     -68.01050000
H      -45.31310000     -34.00910000     -69.67730000
C      -45.49050000     -31.89790000     -69.05970000
H      -45.74200000     -31.49630000     -68.09320000
H      -44.67260000     -31.28610000     -69.45070000
C      -44.27010000     -32.06930000     -72.14010000
H      -43.84080000     -31.15410000     -71.67320000
H      -44.06810000     -32.86110000     -71.44400000
C      -45.73740000     -31.91660000     -72.38190000
C      -46.24250000     -31.81560000     -73.65170000
C      -46.70740000     -31.75970000     -71.36020000
H      -45.86920000     -31.91720000     -74.67140000
C      -47.99400000     -31.60610000     -71.93540000
C      -46.70000000     -31.71910000     -69.96800000
C      -47.97900000     -31.49460000     -69.41760000
S      -48.08040000     -31.78270000     -73.69270000
S      -49.21060000     -31.33930000     -70.70890000
H      -48.40250000     -31.60110000     -68.41440000
