40
Properties=species:S:1:pos:R:3 #=T CELL(abcABC):=T 1.889726e+02=T 90.00000=T Traj:=T positionsangstrom=T Step:=T 0=T Bead:=T pbc="F F F"
C      -49.05690000     -34.03470000     -71.27750000
C      -48.23960000     -34.97310000     -71.97690000
C      -47.47510000     -35.84630000     -71.20080000
C      -47.41010000     -35.77550000     -69.80610000
C      -48.26380000     -34.85120000     -69.19310000
C      -49.17640000     -34.05220000     -69.90780000
H      -49.70550000     -33.39420000     -71.89220000
H      -46.78520000     -36.43650000     -71.77090000
H      -48.14080000     -34.73700000     -68.14240000
H      -49.89160000     -33.46570000     -69.33500000
C      -46.53050000     -36.75660000     -69.03020000
H      -46.90990000     -37.79360000     -69.11910000
H      -46.62070000     -36.45110000     -67.97450000
C      -48.35100000     -34.89880000     -73.49390000
H      -48.64580000     -35.79690000     -73.99420000
H      -49.09190000     -34.09290000     -73.71110000
S      -44.82750000     -36.63380000     -69.66270000
S      -46.66920000     -34.57460000     -74.38250000
C      -44.22840000     -34.89830000     -69.23840000
H      -44.39480000     -34.70090000     -68.17160000
H      -43.15240000     -34.94800000     -69.30650000
C      -46.09490000     -32.96530000     -73.68430000
H      -46.48000000     -32.66740000     -72.68760000
H      -46.32650000     -32.18040000     -74.33540000
C      -44.54980000     -33.06800000     -73.55150000
H      -44.18800000     -34.00740000     -73.12460000
H      -43.93570000     -33.12030000     -74.41790000
C      -44.86900000     -33.82870000     -70.22100000
H      -45.82900000     -33.51120000     -69.74070000
H      -45.11400000     -34.15670000     -71.19430000
C      -43.96160000     -32.56870000     -70.28530000
C      -43.48780000     -31.98960000     -69.13750000
C      -43.71500000     -31.79020000     -71.50010000
H      -43.39140000     -32.50690000     -68.18540000
C      -43.04220000     -30.61660000     -71.14290000
C      -43.96910000     -31.88190000     -72.89360000
C      -43.46320000     -30.84900000     -73.59500000
S      -42.64390000     -30.44650000     -69.46070000
S      -42.68470000     -29.64850000     -72.58240000
H      -43.61310000     -30.73650000     -74.64870000
