40
Properties=species:S:1:pos:R:3 #=T CELL(abcABC):=T 1.889726e+02=T 90.00000=T Traj:=T positionsangstrom=T Step:=T 0=T Bead:=T pbc="F F F"
C      -49.49830000     -34.03180000     -71.25520000
C      -48.54630000     -34.67720000     -72.03640000
C      -47.53340000     -35.45140000     -71.35290000
C      -47.46000000     -35.52810000     -69.90770000
C      -48.45680000     -34.89620000     -69.21240000
C      -49.45290000     -34.14320000     -69.84950000
H      -50.22920000     -33.36940000     -71.66860000
H      -46.72060000     -35.87410000     -72.01800000
H      -48.50560000     -35.09470000     -68.15110000
H      -50.22140000     -33.73860000     -69.28540000
C      -46.56520000     -36.45750000     -69.14480000
H      -46.94120000     -37.47320000     -69.15140000
H      -46.48420000     -36.19600000     -68.06660000
C      -48.58950000     -34.57440000     -73.54560000
H      -49.13390000     -35.40940000     -73.97570000
H      -49.05240000     -33.67020000     -73.92120000
S      -44.80950000     -36.62400000     -69.66770000
S      -46.85870000     -34.54780000     -74.30580000
C      -44.06440000     -35.00850000     -69.17530000
H      -44.51960000     -34.74320000     -68.23520000
H      -42.95420000     -35.19310000     -69.08580000
C      -45.99530000     -33.23050000     -73.29480000
H      -46.29730000     -33.52630000     -72.32350000
H      -46.52720000     -32.29880000     -73.47090000
C      -44.52920000     -33.19740000     -73.54390000
H      -44.01910000     -34.08840000     -73.19310000
H      -44.37930000     -33.14930000     -74.68310000
C      -44.50040000     -33.93480000     -70.19870000
H      -45.51780000     -33.63990000     -70.10360000
H      -44.55390000     -34.38560000     -71.20180000
C      -43.69390000     -32.68470000     -70.26520000
C      -43.14150000     -32.09290000     -69.13210000
C      -43.54370000     -31.90290000     -71.44440000
H      -43.32150000     -32.42550000     -68.10740000
C      -42.80920000     -30.73610000     -71.24010000
C      -43.85260000     -32.01860000     -72.88070000
C      -43.44030000     -30.92850000     -73.56660000
S      -42.52180000     -30.41730000     -69.56160000
S      -42.68810000     -29.75600000     -72.60220000
H      -43.67620000     -30.89460000     -74.61570000
