40
Properties=species:S:1:pos:R:3 #=T CELL(abcABC):=T 1.889726e+02=T 90.00000=T Traj:=T positionsangstrom=T Step:=T 0=T Bead:=T pbc="F F F"
C      -49.55970000     -34.05180000     -71.25610000
C      -48.53940000     -34.74120000     -71.98880000
C      -47.59960000     -35.47260000     -71.26700000
C      -47.58860000     -35.50090000     -69.84740000
C      -48.59020000     -34.76110000     -69.16370000
C      -49.53120000     -34.03740000     -69.87620000
H      -50.33280000     -33.45200000     -71.79420000
H      -46.81720000     -36.03140000     -71.78160000
H      -48.55860000     -34.64310000     -68.07590000
H      -50.26830000     -33.46340000     -69.34300000
C      -46.69170000     -36.45680000     -69.00640000
H      -47.19690000     -37.36740000     -68.97010000
H      -46.69900000     -36.04560000     -67.96150000
C      -48.55030000     -34.59890000     -73.49730000
H      -49.18270000     -35.31410000     -74.02740000
H      -48.96620000     -33.57610000     -73.76420000
S      -45.00470000     -36.61740000     -69.67210000
S      -46.86860000     -34.55380000     -74.25500000
C      -44.09950000     -35.01040000     -69.27610000
H      -44.33360000     -34.66620000     -68.30380000
H      -43.01620000     -35.10400000     -69.19440000
C      -46.03720000     -33.16030000     -73.26670000
H      -46.26820000     -33.33110000     -72.19540000
H      -46.24890000     -32.12280000     -73.61430000
C      -44.55830000     -33.20700000     -73.49510000
H      -44.05360000     -34.14180000     -73.30180000
H      -44.39760000     -33.20450000     -74.59290000
C      -44.36680000     -33.97930000     -70.35100000
H      -45.48700000     -33.88640000     -70.40320000
H      -44.03920000     -34.40120000     -71.30750000
C      -43.63450000     -32.68210000     -70.27750000
C      -43.15970000     -31.99110000     -69.16350000
C      -43.43420000     -31.89590000     -71.43910000
H      -43.01230000     -32.33590000     -68.13610000
C      -42.82580000     -30.67670000     -71.23490000
C      -43.78200000     -32.06920000     -72.87820000
C      -43.30380000     -31.05320000     -73.64490000
S      -42.34900000     -30.52300000     -69.56360000
S      -42.61420000     -29.73860000     -72.68210000
H      -43.36130000     -31.06240000     -74.74890000
