40
Properties=species:S:1:pos:R:3 #=T CELL(abcABC):=T 1.889726e+02=T 90.00000=T Traj:=T positionsangstrom=T Step:=T 0=T Bead:=T pbc="F F F"
C      -49.46470000     -33.95130000     -71.24760000
C      -48.44440000     -34.76400000     -71.84650000
C      -47.56370000     -35.47800000     -71.07320000
C      -47.69820000     -35.41150000     -69.64600000
C      -48.63120000     -34.61970000     -69.06750000
C      -49.54400000     -33.91020000     -69.84860000
H      -50.14440000     -33.30180000     -71.79070000
H      -46.83130000     -36.08620000     -71.53850000
H      -48.59150000     -34.43390000     -67.99410000
H      -50.22620000     -33.18460000     -69.36080000
C      -46.88000000     -36.30240000     -68.74480000
H      -47.26440000     -37.32910000     -68.68510000
H      -46.94390000     -35.90820000     -67.73070000
C      -48.46400000     -34.69730000     -73.35990000
H      -48.98870000     -35.53360000     -73.76980000
H      -48.99150000     -33.83500000     -73.76200000
S      -45.17310000     -36.48650000     -69.24760000
S      -46.80720000     -34.65040000     -74.20610000
C      -44.29710000     -34.88380000     -69.41670000
H      -44.47510000     -34.39120000     -68.47020000
H      -43.27880000     -35.07450000     -69.51700000
C      -46.08340000     -33.02040000     -73.52280000
H      -46.32990000     -33.03310000     -72.45710000
H      -46.70590000     -32.25070000     -73.97980000
C      -44.59090000     -32.98640000     -73.93460000
H      -44.16020000     -34.04550000     -73.78510000
H      -44.62610000     -32.59250000     -74.95590000
C      -44.54680000     -34.00620000     -70.61410000
H      -45.59800000     -33.75090000     -70.64930000
H      -44.39440000     -34.54440000     -71.58810000
C      -43.72870000     -32.79570000     -70.53630000
C      -43.33100000     -32.20430000     -69.33030000
C      -43.50560000     -31.96300000     -71.72190000
H      -43.55740000     -32.47250000     -68.33470000
C      -42.68160000     -30.92390000     -71.33240000
C      -43.84480000     -31.93010000     -73.12480000
C      -43.27710000     -30.77180000     -73.68990000
S      -42.21290000     -30.89330000     -69.66130000
S      -42.29910000     -29.73970000     -72.58900000
H      -43.44350000     -30.30420000     -74.61600000
