40
Properties=species:S:1:pos:R:3 #=T CELL(abcABC):=T 1.889726e+02=T 90.00000=T Traj:=T positionsangstrom=T Step:=T 0=T Bead:=T pbc="F F F"
C      -48.47910000     -35.83020000     -70.03580000
C      -47.19280000     -35.73310000     -69.61510000
C      -46.15770000     -36.20010000     -70.42940000
C      -46.45640000     -36.74550000     -71.68820000
C      -47.81400000     -36.77650000     -72.11940000
C      -48.82340000     -36.24120000     -71.31680000
H      -49.28710000     -35.49270000     -69.37680000
H      -45.11960000     -36.08400000     -70.16720000
H      -48.10700000     -37.15390000     -73.08940000
H      -49.85480000     -36.23680000     -71.70550000
C      -45.35440000     -37.25980000     -72.65590000
H      -45.66210000     -38.23870000     -73.12350000
H      -44.43050000     -37.41940000     -72.17260000
C      -46.91630000     -35.03310000     -68.28710000
H      -47.55720000     -35.60750000     -67.54740000
H      -45.86420000     -35.21510000     -67.93650000
S      -45.18500000     -36.15920000     -74.12870000
S      -47.46740000     -33.29600000     -67.92750000
C      -44.14640000     -34.72160000     -73.52220000
H      -43.36300000     -35.05920000     -72.82250000
H      -43.51070000     -34.42040000     -74.37560000
C      -46.52220000     -32.32320000     -69.19550000
H      -46.56370000     -31.28740000     -68.94280000
H      -47.06700000     -32.50660000     -70.16280000
C      -45.06790000     -32.69560000     -69.36890000
H      -44.74620000     -32.73180000     -68.35270000
H      -44.83670000     -33.73920000     -69.73080000
C      -44.98020000     -33.58830000     -72.83960000
H      -45.11460000     -33.91730000     -71.77040000
H      -45.94550000     -33.55570000     -73.41650000
C      -44.29790000     -32.29140000     -72.81150000
C      -43.93450000     -31.63650000     -73.95530000
C      -43.97170000     -31.59660000     -71.60600000
H      -44.05610000     -32.06240000     -74.93520000
C      -43.29320000     -30.41120000     -71.94540000
C      -44.25900000     -31.72320000     -70.17940000
C      -43.76430000     -30.63980000     -69.51490000
S      -43.24460000     -30.02560000     -73.65470000
S      -42.82190000     -29.44490000     -70.51110000
H      -43.95070000     -30.47910000     -68.45740000
