40
Properties=species:S:1:pos:R:3 #=T CELL(abcABC):=T 1.889726e+02=T 90.00000=T Traj:=T positionsangstrom=T Step:=T 0=T Bead:=T pbc="F F F"
C      -48.47960000     -35.63280000     -70.13810000
C      -47.15310000     -35.64560000     -69.72250000
C      -46.16820000     -36.10880000     -70.59000000
C      -46.48340000     -36.88200000     -71.69750000
C      -47.89200000     -36.96900000     -72.01830000
C      -48.85580000     -36.16030000     -71.33850000
H      -49.26340000     -35.01930000     -69.53050000
H      -45.12290000     -35.94680000     -70.22170000
H      -48.28570000     -37.53470000     -72.83880000
H      -49.85860000     -36.15060000     -71.80280000
C      -45.30280000     -37.30660000     -72.52150000
H      -45.42910000     -38.28020000     -72.91780000
H      -44.34860000     -37.30680000     -71.94260000
C      -46.67760000     -35.15550000     -68.39370000
H      -47.12930000     -35.77160000     -67.65780000
H      -45.63040000     -35.22560000     -68.28830000
S      -45.03180000     -36.20450000     -74.01710000
S      -47.35790000     -33.46000000     -68.05740000
C      -44.26570000     -34.61770000     -73.34530000
H      -43.52810000     -34.88680000     -72.58290000
H      -43.88870000     -34.11880000     -74.26610000
C      -46.54510000     -32.39110000     -69.32750000
H      -46.78060000     -31.34930000     -69.08200000
H      -47.08490000     -32.56450000     -70.22960000
C      -45.04740000     -32.68490000     -69.40230000
H      -44.61980000     -32.82980000     -68.43320000
H      -44.99950000     -33.71470000     -69.88350000
C      -45.28760000     -33.56110000     -72.90130000
H      -45.78750000     -33.89280000     -71.97930000
H      -46.01610000     -33.36910000     -73.62240000
C      -44.59810000     -32.14040000     -72.78590000
C      -44.10250000     -31.55010000     -73.94950000
C      -44.16270000     -31.44690000     -71.57050000
H      -44.31810000     -31.77930000     -74.98170000
C      -43.40350000     -30.28360000     -71.94010000
C      -44.21820000     -31.63720000     -70.11590000
C      -43.57780000     -30.63100000     -69.45140000
S      -43.17640000     -30.10480000     -73.60130000
S      -42.84180000     -29.42400000     -70.48250000
H      -43.42920000     -30.60650000     -68.37820000
