40
Properties=species:S:1:pos:R:3 #=T CELL(abcABC):=T 1.889726e+02=T 90.00000=T Traj:=T positionsangstrom=T Step:=T 0=T Bead:=T pbc="F F F"
C      -48.43450000     -35.88790000     -70.10680000
C      -47.11920000     -35.72060000     -69.72430000
C      -46.07870000     -36.22110000     -70.48370000
C      -46.35400000     -36.76840000     -71.75980000
C      -47.70470000     -36.74040000     -72.17010000
C      -48.72250000     -36.34800000     -71.34860000
H      -49.25470000     -35.59160000     -69.33080000
H      -44.98890000     -36.19220000     -70.18480000
H      -47.93770000     -36.97450000     -73.20440000
H      -49.73450000     -36.47490000     -71.68260000
C      -45.42970000     -37.30040000     -72.80740000
H      -45.81300000     -38.17240000     -73.27560000
H      -44.43940000     -37.57420000     -72.32090000
C      -46.89680000     -35.17200000     -68.34160000
H      -47.36660000     -35.78660000     -67.54270000
H      -45.75260000     -35.12110000     -68.15860000
S      -44.96540000     -36.03520000     -74.10540000
S      -47.38960000     -33.34460000     -68.00280000
C      -44.37090000     -34.59990000     -73.04400000
H      -44.21390000     -34.96600000     -71.99160000
H      -43.38170000     -34.38920000     -73.42840000
C      -46.46470000     -32.53920000     -69.45920000
H      -46.73660000     -31.42610000     -69.40240000
H      -46.81420000     -32.91570000     -70.41770000
C      -44.91600000     -32.80520000     -69.37610000
H      -44.62760000     -32.70330000     -68.30920000
H      -44.69040000     -33.76460000     -69.75290000
C      -45.42990000     -33.44730000     -72.82080000
H      -45.97900000     -33.82180000     -71.98100000
H      -46.20510000     -33.50370000     -73.57360000
C      -44.74350000     -32.11240000     -72.73410000
C      -44.27050000     -31.53880000     -73.89680000
C      -44.19790000     -31.45610000     -71.55500000
H      -44.46730000     -31.84970000     -74.89130000
C      -43.49610000     -30.34530000     -71.91840000
C      -44.21300000     -31.64470000     -70.12490000
C      -43.62090000     -30.61640000     -69.45260000
S      -43.18850000     -30.15140000     -73.61490000
S      -42.76340000     -29.44570000     -70.49270000
H      -43.44220000     -30.53430000     -68.38560000
