40
Properties=species:S:1:pos:R:3 #=T CELL(abcABC):=T 1.889726e+02=T 90.00000=T Traj:=T positionsangstrom=T Step:=T 0=T Bead:=T pbc="F F F"
C      -48.49100000     -35.79650000     -70.21110000
C      -47.13900000     -35.79750000     -69.79040000
C      -46.15510000     -36.42500000     -70.58220000
C      -46.49960000     -36.93330000     -71.86980000
C      -47.79890000     -36.84320000     -72.32550000
C      -48.79250000     -36.27760000     -71.47450000
H      -49.19410000     -35.39750000     -69.56540000
H      -45.13980000     -36.60030000     -70.35180000
H      -48.09630000     -37.17300000     -73.32320000
H      -49.83970000     -36.17660000     -71.86830000
C      -45.32510000     -37.33770000     -72.71990000
H      -45.56260000     -38.27020000     -73.28500000
H      -44.47600000     -37.60460000     -72.11490000
C      -46.85250000     -35.31380000     -68.41240000
H      -47.55850000     -35.85700000     -67.73680000
H      -45.75110000     -35.43360000     -68.13710000
S      -44.77900000     -36.08990000     -74.08250000
S      -47.22050000     -33.55670000     -67.97280000
C      -44.26360000     -34.49450000     -73.10900000
H      -43.70320000     -34.86030000     -72.27200000
H      -43.62530000     -33.96190000     -73.84780000
C      -46.46960000     -32.46270000     -69.25730000
H      -46.72140000     -31.44960000     -68.99410000
H      -46.98540000     -32.72590000     -70.22670000
C      -44.95760000     -32.67010000     -69.27670000
H      -44.59120000     -32.75300000     -68.28520000
H      -44.72200000     -33.62030000     -69.70880000
C      -45.36500000     -33.49760000     -72.73890000
H      -45.75220000     -33.74870000     -71.78550000
H      -46.16910000     -33.58320000     -73.42270000
C      -44.76740000     -32.09110000     -72.68650000
C      -44.48850000     -31.38610000     -73.87740000
C      -44.31250000     -31.36070000     -71.49850000
H      -44.58160000     -31.78320000     -74.88760000
C      -43.60220000     -30.20330000     -71.84020000
C      -44.21260000     -31.58830000     -70.07340000
C      -43.42210000     -30.62560000     -69.43310000
S      -43.46650000     -29.94840000     -73.61170000
S      -42.68260000     -29.44650000     -70.51670000
H      -43.03010000     -30.60410000     -68.41870000
