40
Properties=species:S:1:pos:R:3 #=T CELL(abcABC):=T 1.889726e+02=T 90.00000=T Traj:=T positionsangstrom=T Step:=T 0=T Bead:=T pbc="F F F"
C      -48.46970000     -35.62280000     -70.25880000
C      -47.10980000     -35.62740000     -69.85090000
C      -46.13700000     -36.17930000     -70.63900000
C      -46.47550000     -36.82190000     -71.84400000
C      -47.83810000     -36.83110000     -72.25640000
C      -48.79930000     -36.13330000     -71.52760000
H      -49.20810000     -35.17480000     -69.63740000
H      -45.08280000     -36.11750000     -70.33290000
H      -47.99640000     -37.32080000     -73.22670000
H      -49.85120000     -36.16630000     -71.90290000
C      -45.40610000     -37.37170000     -72.68910000
H      -45.72560000     -38.20510000     -73.25160000
H      -44.47570000     -37.57060000     -72.12240000
C      -46.75610000     -35.21760000     -68.44840000
H      -47.15750000     -35.93610000     -67.73610000
H      -45.69730000     -35.35140000     -68.25520000
S      -44.80820000     -36.09350000     -73.96550000
S      -47.28970000     -33.50720000     -67.95590000
C      -44.23590000     -34.63550000     -73.04910000
H      -43.75710000     -34.92680000     -72.08780000
H      -43.30390000     -34.26800000     -73.55980000
C      -46.35540000     -32.67720000     -69.30740000
H      -46.60050000     -31.62400000     -69.21970000
H      -46.71080000     -33.01710000     -70.26480000
C      -44.84620000     -32.82510000     -69.28810000
H      -44.54460000     -32.71840000     -68.26250000
H      -44.46010000     -33.82600000     -69.74900000
C      -45.25130000     -33.55060000     -72.83090000
H      -45.72780000     -33.73330000     -71.83020000
H      -46.02810000     -33.67080000     -73.61110000
C      -44.67430000     -32.18290000     -72.72830000
C      -44.40480000     -31.49600000     -73.88660000
C      -44.07820000     -31.50640000     -71.49240000
H      -45.01560000     -31.74860000     -74.76300000
C      -43.45980000     -30.28670000     -71.88150000
C      -44.15410000     -31.72310000     -70.04680000
C      -43.47420000     -30.69970000     -69.44690000
S      -43.62000000     -29.94340000     -73.61220000
S      -42.83130000     -29.37440000     -70.53930000
H      -43.19730000     -30.76130000     -68.41430000
