40
Properties=species:S:1:pos:R:3 #=T CELL(abcABC):=T 1.889726e+02=T 90.00000=T Traj:=T positionsangstrom=T Step:=T 0=T Bead:=T pbc="F F F"
C      -48.44820000     -35.63220000     -70.07710000
C      -47.15380000     -35.75200000     -69.56270000
C      -46.17820000     -36.29910000     -70.36670000
C      -46.48340000     -36.62830000     -71.73930000
C      -47.76680000     -36.46100000     -72.25320000
C      -48.76370000     -35.92840000     -71.37160000
H      -49.14610000     -35.19520000     -69.42490000
H      -45.14680000     -36.35170000     -70.06930000
H      -48.01270000     -36.60180000     -73.28890000
H      -49.81460000     -35.65770000     -71.78690000
C      -45.50760000     -37.38930000     -72.58220000
H      -45.95480000     -38.16540000     -73.20200000
H      -44.82530000     -37.80350000     -71.86020000
C      -46.79160000     -35.21070000     -68.17690000
H      -47.20320000     -35.75260000     -67.36910000
H      -45.64620000     -35.21720000     -68.10310000
S      -44.66590000     -36.27490000     -73.78430000
S      -47.28910000     -33.46400000     -67.99600000
C      -44.06290000     -34.71830000     -72.94850000
H      -43.56850000     -35.05380000     -72.01810000
H      -43.12050000     -34.38490000     -73.51190000
C      -46.25230000     -32.76840000     -69.42280000
H      -46.40660000     -31.73350000     -69.40250000
H      -46.70030000     -33.16480000     -70.33300000
C      -44.68430000     -32.93350000     -69.49170000
H      -44.16370000     -32.99960000     -68.49730000
H      -44.46230000     -33.89550000     -70.07900000
C      -45.14870000     -33.62690000     -72.89560000
H      -45.76870000     -33.92450000     -72.05410000
H      -45.74750000     -33.75740000     -73.81620000
C      -44.60370000     -32.19620000     -72.87070000
C      -44.41200000     -31.49560000     -74.02000000
C      -44.27200000     -31.44940000     -71.65940000
H      -44.57780000     -31.92100000     -74.97360000
C      -43.66050000     -30.23120000     -71.99800000
C      -44.20000000     -31.71850000     -70.21400000
C      -43.51250000     -30.69670000     -69.58650000
S      -43.61100000     -29.92120000     -73.73230000
S      -43.01820000     -29.35020000     -70.64730000
H      -43.44420000     -30.64380000     -68.48130000
