40
Properties=species:S:1:pos:R:3 #=T CELL(abcABC):=T 1.889726e+02=T 90.00000=T Traj:=T positionsangstrom=T Step:=T 0=T Bead:=T pbc="F F F"
C      -48.49130000     -35.38860000     -70.18290000
C      -47.31800000     -35.59460000     -69.49790000
C      -46.20150000     -36.18560000     -70.17030000
C      -46.35700000     -36.66780000     -71.49760000
C      -47.60330000     -36.39950000     -72.19480000
C      -48.63840000     -35.78320000     -71.49600000
H      -49.21160000     -34.74070000     -69.64340000
H      -45.16470000     -36.36710000     -69.73470000
H      -47.70390000     -36.77360000     -73.21780000
H      -49.58550000     -35.54110000     -71.97660000
C      -45.28700000     -37.36320000     -72.25550000
H      -45.72530000     -38.28290000     -72.73000000
H      -44.42350000     -37.71550000     -71.73000000
C      -47.05940000     -35.17170000     -68.05860000
H      -47.96290000     -35.55190000     -67.49000000
H      -46.09790000     -35.57980000     -67.72800000
S      -44.87180000     -36.36310000     -73.72910000
S      -46.97070000     -33.34440000     -67.68240000
C      -44.09390000     -34.83830000     -72.95760000
H      -43.72890000     -35.00550000     -71.91960000
H      -43.32480000     -34.40650000     -73.60940000
C      -46.23110000     -32.48780000     -69.19630000
H      -46.28460000     -31.42390000     -68.95840000
H      -46.87920000     -32.70480000     -69.99330000
C      -44.81150000     -32.88720000     -69.60520000
H      -44.18400000     -33.14530000     -68.72930000
H      -44.96860000     -33.80510000     -70.17580000
C      -45.19690000     -33.74640000     -72.89330000
H      -45.86990000     -33.95140000     -72.04740000
H      -45.86530000     -33.82040000     -73.72530000
C      -44.64410000     -32.28560000     -72.93910000
C      -44.59850000     -31.54850000     -74.10120000
C      -44.15230000     -31.53500000     -71.83390000
H      -44.88230000     -31.84530000     -75.12750000
C      -43.61410000     -30.31470000     -72.20250000
C      -44.17370000     -31.76040000     -70.35790000
C      -43.65630000     -30.63780000     -69.73000000
S      -43.61450000     -30.13180000     -73.95430000
S      -42.99510000     -29.40500000     -70.85050000
H      -43.35860000     -30.55450000     -68.73030000
