40
Properties=species:S:1:pos:R:3 #=T CELL(abcABC):=T 1.889726e+02=T 90.00000=T Traj:=T positionsangstrom=T Step:=T 0=T Bead:=T pbc="F F F"
C      -48.44980000     -35.17190000     -70.08910000
C      -47.26790000     -35.38890000     -69.35730000
C      -46.23810000     -36.11460000     -69.97700000
C      -46.32080000     -36.56500000     -71.31930000
C      -47.47370000     -36.17640000     -72.08030000
C      -48.52240000     -35.46800000     -71.46000000
H      -49.28710000     -34.70740000     -69.58580000
H      -45.35120000     -36.33780000     -69.45600000
H      -47.51670000     -36.56960000     -73.06020000
H      -49.40420000     -35.20890000     -72.07170000
C      -45.35250000     -37.45060000     -72.02400000
H      -45.84010000     -38.36200000     -72.30230000
H      -44.53020000     -37.65990000     -71.25830000
C      -47.04310000     -34.93940000     -67.88590000
H      -47.84770000     -35.28460000     -67.21620000
H      -46.16500000     -35.44700000     -67.35650000
S      -44.66180000     -36.59810000     -73.47460000
S      -46.91910000     -33.09710000     -67.66210000
C      -44.06720000     -34.87950000     -73.17940000
H      -43.39020000     -34.88900000     -72.31960000
H      -43.49740000     -34.49460000     -74.06540000
C      -46.51220000     -32.57220000     -69.34010000
H      -46.82700000     -31.57610000     -69.44320000
H      -47.04770000     -33.11470000     -70.08270000
C      -44.95150000     -32.63660000     -69.54900000
H      -44.40360000     -32.58010000     -68.59140000
H      -44.68140000     -33.60400000     -69.95890000
C      -45.28720000     -33.88350000     -72.85780000
H      -45.68810000     -34.05930000     -71.87050000
H      -46.05090000     -33.98670000     -73.59600000
C      -44.76810000     -32.47290000     -72.97060000
C      -44.58260000     -31.87060000     -74.21110000
C      -44.27530000     -31.61160000     -71.89780000
H      -45.05890000     -32.08560000     -75.15050000
C      -43.66220000     -30.43920000     -72.35420000
C      -44.37020000     -31.65290000     -70.48560000
C      -43.65520000     -30.57490000     -69.95050000
S      -43.66160000     -30.34970000     -74.07470000
S      -42.92350000     -29.50090000     -71.10370000
H      -43.72920000     -30.31780000     -68.89660000
