40
Properties=species:S:1:pos:R:3 #=T CELL(abcABC):=T 1.889726e+02=T 90.00000=T Traj:=T positionsangstrom=T Step:=T 0=T Bead:=T pbc="F F F"
C      -48.33520000     -35.04990000     -70.02290000
C      -47.21320000     -35.34470000     -69.34460000
C      -46.24380000     -36.08870000     -69.95930000
C      -46.40010000     -36.63280000     -71.24260000
C      -47.63940000     -36.40040000     -71.93900000
C      -48.56640000     -35.52890000     -71.31810000
H      -49.02640000     -34.47020000     -69.54690000
H      -45.33000000     -36.26640000     -69.37290000
H      -47.78550000     -36.83220000     -72.92810000
H      -49.51940000     -35.17520000     -71.89060000
C      -45.10310000     -37.26980000     -71.75970000
H      -45.08860000     -38.34810000     -71.85990000
H      -44.25770000     -37.01220000     -71.08920000
C      -47.06170000     -34.87570000     -67.87880000
H      -47.92650000     -35.27740000     -67.31350000
H      -46.16460000     -35.27330000     -67.47380000
S      -44.54020000     -36.68160000     -73.48620000
S      -47.21560000     -33.01350000     -67.67290000
C      -43.94840000     -35.03620000     -73.00540000
H      -43.44850000     -35.15890000     -71.99620000
H      -43.30230000     -34.68050000     -73.80530000
C      -46.40220000     -32.20850000     -69.24770000
H      -46.44590000     -31.11850000     -68.94460000
H      -47.05940000     -32.37260000     -70.08870000
C      -44.94150000     -32.64290000     -69.58440000
H      -44.35570000     -32.75190000     -68.71720000
H      -45.02820000     -33.62770000     -70.19390000
C      -45.13370000     -34.04750000     -72.85550000
H      -45.74410000     -34.19830000     -71.96260000
H      -45.87870000     -34.24780000     -73.63320000
C      -44.52570000     -32.63320000     -73.00520000
C      -44.31960000     -32.08070000     -74.25370000
C      -44.21500000     -31.65360000     -71.96620000
H      -44.46480000     -32.57150000     -75.23200000
C      -43.77620000     -30.42410000     -72.45430000
C      -44.30080000     -31.63760000     -70.50590000
C      -43.73790000     -30.50120000     -69.98810000
S      -43.70210000     -30.45370000     -74.22040000
S      -43.12180000     -29.34060000     -71.22440000
H      -43.48430000     -30.46270000     -68.88500000
