40
Properties=species:S:1:pos:R:3 #=T CELL(abcABC):=T 1.889726e+02=T 90.00000=T Traj:=T positionsangstrom=T Step:=T 0=T Bead:=T pbc="F F F"
C      -48.36860000     -32.74090000     -70.87700000
C      -48.36390000     -33.99310000     -71.47890000
C      -48.08020000     -35.14790000     -70.73910000
C      -47.71150000     -35.10950000     -69.35010000
C      -47.65680000     -33.80600000     -68.77710000
C      -47.98730000     -32.68030000     -69.51910000
H      -48.50590000     -31.83810000     -71.48180000
H      -48.18620000     -36.07080000     -71.35610000
H      -47.17490000     -33.75090000     -67.75870000
H      -47.87790000     -31.72270000     -69.08020000
C      -47.10540000     -36.30390000     -68.73080000
H      -47.85190000     -37.08970000     -68.66770000
H      -46.85830000     -36.06710000     -67.69110000
C      -48.75570000     -34.14820000     -72.95040000
H      -49.35080000     -35.05960000     -73.00360000
H      -49.39600000     -33.33530000     -73.34240000
S      -45.46340000     -36.83980000     -69.47910000
S      -47.29640000     -34.41890000     -74.04810000
C      -44.49060000     -35.29980000     -69.42280000
H      -44.84160000     -34.70630000     -68.53750000
H      -43.43330000     -35.68500000     -69.33820000
C      -46.16710000     -33.04460000     -73.85150000
H      -46.37910000     -32.71050000     -72.81580000
H      -46.39540000     -32.22310000     -74.50680000
C      -44.72200000     -33.37520000     -73.89390000
H      -44.53800000     -34.25490000     -73.26580000
H      -44.41470000     -33.47250000     -74.94860000
C      -44.65530000     -34.37040000     -70.69030000
H      -45.71630000     -34.15520000     -70.84010000
H      -44.23020000     -35.01460000     -71.46740000
C      -43.87760000     -33.06760000     -70.68340000
C      -43.23550000     -32.58040000     -69.56200000
C      -43.64140000     -32.17200000     -71.83560000
H      -43.12020000     -33.08270000     -68.61830000
C      -42.80050000     -31.10550000     -71.46390000
C      -43.95700000     -32.22950000     -73.25330000
C      -43.30100000     -31.20140000     -73.90510000
S      -42.29130000     -31.13950000     -69.77020000
S      -42.17250000     -30.23870000     -72.84950000
H      -43.26910000     -30.98930000     -74.97540000
