40
Properties=species:S:1:pos:R:3 #=T CELL(abcABC):=T 1.889726e+02=T 90.00000=T Traj:=T positionsangstrom=T Step:=T 0=T Bead:=T pbc="F F F"
C      -48.42130000     -32.82890000     -70.92030000
C      -48.39250000     -34.04500000     -71.57220000
C      -48.00930000     -35.23680000     -70.87490000
C      -47.68790000     -35.13560000     -69.47850000
C      -47.82680000     -33.91250000     -68.84440000
C      -48.16630000     -32.72330000     -69.55620000
H      -48.87370000     -31.94280000     -71.43200000
H      -48.00530000     -36.15480000     -71.39530000
H      -47.82500000     -33.78210000     -67.71070000
H      -48.34350000     -31.77290000     -69.10170000
C      -47.15280000     -36.30970000     -68.68980000
H      -47.88140000     -37.09270000     -68.81630000
H      -46.95400000     -36.08700000     -67.60300000
C      -48.72310000     -34.10910000     -73.01980000
H      -49.28670000     -35.04750000     -73.23590000
H      -49.35850000     -33.27880000     -73.24280000
S      -45.50060000     -36.76990000     -69.50080000
S      -47.37480000     -34.28800000     -74.20540000
C      -44.38940000     -35.20440000     -69.39880000
H      -44.54260000     -34.72490000     -68.44080000
H      -43.36010000     -35.60190000     -69.47790000
C      -46.21250000     -32.99820000     -73.61660000
H      -46.41290000     -32.79260000     -72.50850000
H      -46.50980000     -32.03910000     -74.12770000
C      -44.78840000     -33.37530000     -73.91630000
H      -44.57050000     -34.43990000     -73.73010000
H      -44.61260000     -33.40940000     -74.97180000
C      -44.60200000     -34.26480000     -70.53810000
H      -45.62430000     -33.88900000     -70.50460000
H      -44.64490000     -34.77500000     -71.49640000
C      -43.68380000     -33.11520000     -70.53900000
C      -43.08470000     -32.58320000     -69.42350000
C      -43.44610000     -32.29320000     -71.73990000
H      -42.99750000     -33.00090000     -68.40600000
C      -42.63620000     -31.23680000     -71.48490000
C      -43.81460000     -32.44250000     -73.19340000
C      -43.13490000     -31.45380000     -73.88440000
S      -42.22440000     -31.04920000     -69.71000000
S      -42.34400000     -30.20020000     -72.85800000
H      -43.12700000     -31.24840000     -74.94260000
