40
Properties=species:S:1:pos:R:3 #=T CELL(abcABC):=T 1.889726e+02=T 90.00000=T Traj:=T positionsangstrom=T Step:=T 0=T Bead:=T pbc="F F F"
C      -48.83070000     -32.86820000     -70.92700000
C      -48.48800000     -34.05810000     -71.61470000
C      -48.03370000     -35.18860000     -70.92790000
C      -47.62570000     -35.03540000     -69.60230000
C      -47.78040000     -33.82550000     -68.95270000
C      -48.42860000     -32.75590000     -69.61220000
H      -49.27730000     -32.01690000     -71.42020000
H      -47.92170000     -36.03660000     -71.51090000
H      -47.47000000     -33.71520000     -67.90500000
H      -48.51590000     -31.79150000     -69.04300000
C      -47.04030000     -36.30860000     -68.84360000
H      -47.64260000     -37.20380000     -69.01300000
H      -47.01150000     -36.20610000     -67.76160000
C      -48.85210000     -34.16030000     -73.03960000
H      -49.46590000     -35.00370000     -73.32500000
H      -49.45030000     -33.22960000     -73.29780000
S      -45.39990000     -36.82540000     -69.47050000
S      -47.29520000     -34.08610000     -74.20910000
C      -44.43190000     -35.25740000     -69.28240000
H      -44.74450000     -34.68680000     -68.42230000
H      -43.42120000     -35.57250000     -69.03820000
C      -46.12380000     -33.01150000     -73.30300000
H      -46.23340000     -33.01520000     -72.27690000
H      -46.15780000     -31.96310000     -73.68740000
C      -44.64790000     -33.51750000     -73.72520000
H      -44.52200000     -34.45230000     -73.08080000
H      -44.44140000     -33.72680000     -74.80220000
C      -44.49240000     -34.41980000     -70.52000000
H      -45.55070000     -34.18300000     -70.75680000
H      -44.17120000     -35.07290000     -71.42620000
C      -43.74080000     -33.12670000     -70.58470000
C      -43.22830000     -32.49600000     -69.46790000
C      -43.41840000     -32.35330000     -71.75010000
H      -43.34790000     -32.78990000     -68.45760000
C      -42.49050000     -31.33680000     -71.52020000
C      -43.76590000     -32.42970000     -73.16090000
C      -43.34460000     -31.29140000     -73.84210000
S      -42.23790000     -31.08140000     -69.79560000
S      -42.29100000     -30.23220000     -72.83770000
H      -43.53840000     -30.98230000     -74.85180000
