40
Properties=species:S:1:pos:R:3 #=T CELL(abcABC):=T 1.889726e+02=T 90.00000=T Traj:=T positionsangstrom=T Step:=T 0=T Bead:=T pbc="F F F"
C      -49.02130000     -32.97230000     -70.95780000
C      -48.52000000     -34.05210000     -71.69910000
C      -47.92230000     -35.15590000     -71.08610000
C      -47.61260000     -35.10870000     -69.70810000
C      -48.02950000     -33.95510000     -69.00660000
C      -48.71360000     -32.97090000     -69.59460000
H      -49.54490000     -32.15020000     -71.41700000
H      -47.59390000     -36.03720000     -71.72480000
H      -47.87000000     -33.98750000     -67.92170000
H      -49.09610000     -32.16590000     -69.03130000
C      -47.12980000     -36.33220000     -68.99570000
H      -47.66040000     -37.19610000     -69.46750000
H      -47.29050000     -36.25580000     -67.93480000
C      -48.81290000     -34.00250000     -73.23060000
H      -49.54630000     -34.84570000     -73.36290000
H      -49.33390000     -33.05490000     -73.48570000
S      -45.34910000     -36.70300000     -69.35160000
S      -47.35830000     -34.26390000     -74.38100000
C      -44.50880000     -35.05940000     -69.17820000
H      -45.14640000     -34.47290000     -68.57790000
H      -43.61250000     -35.16320000     -68.65020000
C      -46.07640000     -33.12100000     -73.56840000
H      -46.40400000     -33.05720000     -72.48300000
H      -46.24770000     -32.15840000     -73.89180000
C      -44.55190000     -33.38200000     -73.75120000
H      -44.32040000     -34.39650000     -73.51620000
H      -44.29360000     -33.29520000     -74.89280000
C      -44.30170000     -34.49560000     -70.49920000
H      -45.26640000     -34.53860000     -71.08990000
H      -43.75550000     -35.20390000     -71.08810000
C      -43.62410000     -33.15120000     -70.56320000
C      -43.09420000     -32.57680000     -69.38510000
C      -43.28370000     -32.35750000     -71.71610000
H      -43.12020000     -33.05120000     -68.40860000
C      -42.54730000     -31.24000000     -71.30770000
C      -43.76160000     -32.28550000     -73.04800000
C      -43.21630000     -31.24400000     -73.78350000
S      -42.22340000     -31.12150000     -69.60150000
S      -42.28470000     -30.11260000     -72.77400000
H      -43.48110000     -31.11430000     -74.85040000
