40
Properties=species:S:1:pos:R:3 #=T CELL(abcABC):=T 1.889726e+02=T 90.00000=T Traj:=T positionsangstrom=T Step:=T 0=T Bead:=T pbc="F F F"
C      -49.07780000     -33.07080000     -71.23710000
C      -48.72990000     -34.29830000     -71.89000000
C      -48.16400000     -35.24970000     -71.07540000
C      -48.04420000     -35.10070000     -69.68450000
C      -48.36930000     -33.91320000     -69.02870000
C      -48.84960000     -32.86390000     -69.88490000
H      -49.52000000     -32.30510000     -71.81610000
H      -47.80150000     -36.13060000     -71.63920000
H      -48.27430000     -33.90940000     -67.95920000
H      -49.14700000     -31.94120000     -69.39980000
C      -47.29000000     -36.26160000     -68.86540000
H      -47.75340000     -37.29280000     -68.88250000
H      -47.29060000     -35.90240000     -67.91380000
C      -48.75180000     -34.52190000     -73.37950000
H      -49.16770000     -35.52950000     -73.59890000
H      -49.49630000     -33.84110000     -73.79960000
S      -45.57160000     -36.54460000     -69.44310000
S      -47.01110000     -34.49400000     -74.13750000
C      -44.89870000     -34.90720000     -69.22820000
H      -45.55260000     -34.20320000     -68.60660000
H      -43.96110000     -34.98570000     -68.60510000
C      -45.98690000     -33.01850000     -73.51010000
H      -46.36560000     -32.85380000     -72.49410000
H      -46.24530000     -32.06800000     -73.99780000
C      -44.50690000     -33.20960000     -73.66730000
H      -44.34130000     -34.27820000     -73.24670000
H      -44.23280000     -33.16290000     -74.72070000
C      -44.73510000     -34.09600000     -70.51900000
H      -45.79820000     -33.77470000     -70.84890000
H      -44.55270000     -34.73150000     -71.41720000
C      -43.65980000     -32.99550000     -70.51210000
C      -43.10390000     -32.57740000     -69.33870000
C      -43.16390000     -32.20940000     -71.65410000
H      -43.19130000     -32.95670000     -68.33240000
C      -42.28510000     -31.15530000     -71.32030000
C      -43.56750000     -32.23930000     -73.04120000
C      -43.14480000     -31.17740000     -73.75950000
S      -41.92290000     -31.26270000     -69.57030000
S      -42.04250000     -30.16460000     -72.75440000
H      -43.04160000     -30.96880000     -74.80960000
