40
Properties=species:S:1:pos:R:3 #=T CELL(abcABC):=T 1.889726e+02=T 90.00000=T Traj:=T positionsangstrom=T Step:=T 0=T Bead:=T pbc="F F F"
C      -42.93690000     -29.46100000     -71.36600000
C      -43.67400000     -30.47570000     -70.80420000
C      -44.87970000     -30.87520000     -71.42020000
C      -45.21350000     -30.39920000     -72.68650000
C      -44.43150000     -29.37710000     -73.31040000
C      -43.35640000     -28.90030000     -72.59570000
H      -41.96470000     -29.12720000     -70.99590000
H      -45.54820000     -31.56910000     -70.98480000
H      -44.45220000     -29.11650000     -74.35540000
H      -42.79180000     -28.06690000     -73.06880000
C      -46.52140000     -30.73280000     -73.32840000
H      -46.65880000     -30.28240000     -74.36250000
H      -47.31980000     -30.22140000     -72.79830000
C      -43.30190000     -31.00010000     -69.43760000
H      -42.36750000     -30.61570000     -69.09380000
H      -44.06710000     -30.68460000     -68.70580000
S      -47.07650000     -32.53900000     -73.26890000
S      -43.25870000     -32.84310000     -69.36010000
C      -45.58470000     -33.34760000     -73.82710000
H      -45.41990000     -33.07250000     -74.82470000
H      -44.79820000     -33.05130000     -73.20950000
C      -42.95240000     -33.53590000     -71.02850000
H      -41.85650000     -33.43850000     -71.22250000
H      -43.47860000     -32.95790000     -71.79720000
C      -43.19510000     -35.02280000     -71.00850000
H      -43.14200000     -35.37910000     -72.08920000
H      -42.37970000     -35.45060000     -70.45130000
C      -45.56820000     -34.89320000     -73.70810000
H      -44.49470000     -35.34300000     -73.60970000
H      -45.95120000     -35.32160000     -74.61990000
C      -46.30070000     -35.38410000     -72.48760000
C      -47.62140000     -35.56290000     -72.54350000
C      -45.80610000     -35.43960000     -71.06480000
H      -48.33790000     -35.55810000     -73.36710000
C      -46.76950000     -35.86820000     -70.21000000
C      -44.51840000     -35.44360000     -70.39520000
C      -44.57160000     -35.87370000     -69.07920000
S      -48.36940000     -35.91780000     -70.94240000
S      -46.16920000     -36.19550000     -68.57410000
H      -43.73890000     -35.90060000     -68.41240000
