40
Properties=species:S:1:pos:R:3 #=T CELL(abcABC):=T 1.889726e+02=T 90.00000=T Traj:=T positionsangstrom=T Step:=T 0=T Bead:=T pbc="F F F"
C      -47.87340000     -35.63210000     -69.04150000
C      -46.50980000     -35.24710000     -68.64000000
C      -45.45060000     -35.77540000     -69.32970000
C      -45.49770000     -36.78350000     -70.29980000
C      -46.82450000     -37.28630000     -70.48950000
C      -48.01500000     -36.65740000     -69.97960000
H      -48.72100000     -35.06140000     -68.70360000
H      -44.49590000     -35.30930000     -69.03060000
H      -47.01570000     -38.02150000     -71.21180000
H      -48.93200000     -37.04860000     -70.41920000
C      -44.26370000     -37.41790000     -70.86840000
H      -44.43350000     -38.51090000     -70.96020000
H      -43.36570000     -37.31340000     -70.35170000
C      -46.33500000     -34.08690000     -67.72960000
H      -46.79810000     -34.27700000     -66.74110000
H      -45.27200000     -33.82410000     -67.43170000
S      -43.95790000     -36.92500000     -72.59630000
S      -47.49510000     -32.63390000     -68.31390000
C      -43.61830000     -35.13370000     -72.80000000
H      -42.86910000     -34.80620000     -72.02750000
H      -43.20790000     -34.97840000     -73.78200000
C      -46.81740000     -32.26300000     -69.99940000
H      -47.40210000     -31.42650000     -70.41130000
H      -47.03610000     -33.06790000     -70.66000000
C      -45.30000000     -31.99060000     -69.88230000
H      -45.20100000     -31.37550000     -68.94920000
H      -44.70090000     -32.83950000     -69.73120000
C      -44.80810000     -34.20900000     -72.68560000
H      -45.10530000     -34.15560000     -71.61180000
H      -45.71630000     -34.57580000     -73.18620000
C      -44.64780000     -32.78410000     -73.17420000
C      -44.41140000     -32.46420000     -74.47640000
C      -44.58740000     -31.55460000     -72.37220000
H      -44.43850000     -33.15520000     -75.30100000
C      -44.27210000     -30.43900000     -73.16150000
C      -44.86280000     -31.12800000     -71.04110000
C      -44.83310000     -29.80120000     -70.87610000
S      -44.05830000     -30.78670000     -74.87160000
S      -44.31000000     -28.94600000     -72.26770000
H      -45.08100000     -29.26810000     -69.95050000
