40
Properties=species:S:1:pos:R:3 #=T CELL(abcABC):=T 1.889726e+02=T 90.00000=T Traj:=T positionsangstrom=T Step:=T 0=T Bead:=T pbc="F F F"
C      -47.77090000     -35.83110000     -69.09280000
C      -46.54240000     -35.26720000     -68.74170000
C      -45.38790000     -35.82520000     -69.30840000
C      -45.49120000     -36.79710000     -70.28760000
C      -46.74650000     -37.31990000     -70.60030000
C      -47.93960000     -36.84590000     -70.03830000
H      -48.75910000     -35.39220000     -68.70360000
H      -44.44550000     -35.39050000     -68.98870000
H      -46.66470000     -38.17800000     -71.35630000
H      -48.91790000     -37.15540000     -70.31930000
C      -44.14720000     -37.25270000     -70.84790000
H      -43.89910000     -38.28300000     -70.77840000
H      -43.31070000     -36.69480000     -70.36460000
C      -46.53250000     -34.22400000     -67.67860000
H      -47.08000000     -34.50220000     -66.72230000
H      -45.46080000     -34.08370000     -67.44320000
S      -44.24570000     -36.84410000     -72.67290000
S      -47.22180000     -32.55240000     -68.04570000
C      -43.59670000     -35.13240000     -72.66420000
H      -42.75490000     -34.99560000     -71.97840000
H      -43.44010000     -34.85390000     -73.73320000
C      -46.69250000     -32.04810000     -69.77940000
H      -47.32610000     -31.22800000     -70.05100000
H      -46.90120000     -32.82960000     -70.50620000
C      -45.24260000     -31.67790000     -69.83610000
H      -45.11470000     -31.03320000     -68.97000000
H      -44.66410000     -32.63590000     -69.72040000
C      -44.72220000     -34.17810000     -72.15620000
H      -44.73630000     -34.03810000     -71.07890000
H      -45.72160000     -34.51020000     -72.41570000
C      -44.46880000     -32.83800000     -72.96180000
C      -44.18830000     -32.76070000     -74.31500000
C      -44.55840000     -31.53360000     -72.41800000
H      -43.99940000     -33.57430000     -75.00370000
C      -44.35570000     -30.48560000     -73.29980000
C      -44.89510000     -30.95280000     -71.10090000
C      -44.95420000     -29.59330000     -71.14000000
S      -43.99130000     -31.09460000     -74.92300000
S      -44.66820000     -28.85390000     -72.69010000
H      -45.15990000     -29.01430000     -70.26230000
