40
Properties=species:S:1:pos:R:3 #=T CELL(abcABC):=T 1.889726e+02=T 90.00000=T Traj:=T positionsangstrom=T Step:=T 0=T Bead:=T pbc="F F F"
C      -47.75390000     -35.69140000     -68.72380000
C      -46.40010000     -35.22230000     -68.52940000
C      -45.44200000     -35.74950000     -69.30760000
C      -45.73310000     -36.68190000     -70.34310000
C      -47.06420000     -37.13540000     -70.51350000
C      -48.09610000     -36.61430000     -69.72390000
H      -48.58360000     -35.29540000     -68.04710000
H      -44.42860000     -35.35810000     -69.19180000
H      -47.29040000     -37.90490000     -71.29030000
H      -49.11500000     -36.93490000     -69.97990000
C      -44.49030000     -37.26670000     -70.98520000
H      -44.46220000     -38.38190000     -70.94420000
H      -43.53100000     -37.05210000     -70.50740000
C      -46.21350000     -34.06860000     -67.56910000
H      -46.54550000     -34.24670000     -66.59850000
H      -45.15480000     -33.79040000     -67.52930000
S      -44.14260000     -36.84930000     -72.79840000
S      -47.14590000     -32.51680000     -68.12930000
C      -43.45940000     -35.18960000     -72.61660000
H      -42.74060000     -35.21220000     -71.80550000
H      -42.96340000     -34.98590000     -73.61460000
C      -46.48160000     -32.32720000     -69.86490000
H      -47.18300000     -31.56620000     -70.27730000
H      -46.51200000     -33.27150000     -70.43170000
C      -45.05110000     -31.84170000     -69.89150000
H      -44.99820000     -31.14510000     -69.09610000
H      -44.29850000     -32.63960000     -69.74450000
C      -44.43920000     -34.15050000     -72.24720000
H      -44.30290000     -33.92070000     -71.22010000
H      -45.49610000     -34.60210000     -72.28620000
C      -44.39570000     -32.89960000     -73.08860000
C      -44.17700000     -32.76180000     -74.44660000
C      -44.51420000     -31.52060000     -72.43920000
H      -44.11690000     -33.61250000     -75.14520000
C      -44.45990000     -30.49310000     -73.37290000
C      -44.79050000     -31.04950000     -71.11390000
C      -45.01960000     -29.73710000     -71.11000000
S      -44.20800000     -31.08140000     -74.96870000
S      -44.76810000     -28.93690000     -72.59270000
H      -45.25170000     -29.16010000     -70.20880000
