40
Properties=species:S:1:pos:R:3 #=T CELL(abcABC):=T 1.889726e+02=T 90.00000=T Traj:=T positionsangstrom=T Step:=T 0=T Bead:=T pbc="F F F"
C      -44.69250000     -36.44340000     -70.22810000
C      -43.46600000     -35.79150000     -69.97820000
C      -42.72560000     -35.40160000     -71.10280000
C      -43.25600000     -35.49700000     -72.38370000
C      -44.47770000     -36.13030000     -72.58770000
C      -45.22970000     -36.66390000     -71.56570000
H      -45.31570000     -36.74390000     -69.42070000
H      -41.78100000     -34.85430000     -70.93670000
H      -44.78700000     -36.22090000     -73.63280000
H      -46.23850000     -37.09000000     -71.67270000
C      -42.57930000     -34.91240000     -73.63280000
H      -42.37730000     -35.71150000     -74.30440000
H      -41.61470000     -34.54130000     -73.29560000
C      -42.88310000     -35.55310000     -68.58140000
H      -43.37130000     -36.32240000     -67.96120000
H      -41.77110000     -35.66800000     -68.55610000
S      -43.49910000     -33.61450000     -74.56760000
S      -43.43240000     -33.88100000     -67.94290000
C      -43.25430000     -32.14740000     -73.31660000
H      -42.21140000     -32.15360000     -73.00220000
H      -43.37680000     -31.24870000     -73.89880000
C      -45.10120000     -33.56520000     -68.73400000
H      -45.80980000     -34.07990000     -68.14000000
H      -45.09580000     -33.88680000     -69.75450000
C      -45.56620000     -32.08980000     -68.80920000
H      -45.93910000     -31.73220000     -67.83050000
H      -44.73550000     -31.41530000     -69.20060000
C      -44.24960000     -32.16880000     -72.04860000
H      -43.94820000     -31.38430000     -71.40220000
H      -43.96920000     -33.19390000     -71.72530000
C      -45.74250000     -32.01520000     -72.24600000
C      -46.32460000     -31.94140000     -73.47780000
C      -46.71040000     -31.91110000     -71.16200000
H      -45.84750000     -32.18020000     -74.37440000
C      -47.98100000     -31.73970000     -71.66060000
C      -46.75900000     -31.88000000     -69.72990000
C      -48.01840000     -31.62000000     -69.22600000
S      -48.12150000     -31.77080000     -73.44990000
S      -49.21400000     -31.49950000     -70.51740000
H      -48.27070000     -31.60640000     -68.17210000
