40
Properties=species:S:1:pos:R:3 #=T CELL(abcABC):=T 1.889726e+02=T 90.00000=T Traj:=T positionsangstrom=T Step:=T 0=T Bead:=T pbc="F F F"
C      -47.90610000     -35.55410000     -68.72550000
C      -46.66780000     -34.99760000     -68.42020000
C      -45.57010000     -35.51540000     -69.11740000
C      -45.65010000     -36.62320000     -70.03650000
C      -46.88770000     -37.18990000     -70.23760000
C      -47.98570000     -36.62680000     -69.57070000
H      -48.86580000     -35.10620000     -68.33270000
H      -44.54490000     -34.97020000     -68.95050000
H      -46.93450000     -38.03220000     -70.92810000
H      -48.99070000     -37.00920000     -69.87770000
C      -44.31530000     -37.09520000     -70.63700000
H      -44.25370000     -38.13320000     -70.25690000
H      -43.53140000     -36.44600000     -70.21940000
C      -46.53440000     -33.75280000     -67.48900000
H      -46.97170000     -33.95000000     -66.48050000
H      -45.45060000     -33.54930000     -67.28690000
S      -44.33330000     -37.08100000     -72.46780000
S      -47.38240000     -32.22560000     -68.16880000
C      -43.74700000     -35.36800000     -72.67560000
H      -42.83200000     -35.28090000     -72.13520000
H      -43.41070000     -35.33760000     -73.70940000
C      -46.75940000     -32.07200000     -69.84870000
H      -47.38250000     -31.20520000     -70.25060000
H      -47.14130000     -32.94350000     -70.43690000
C      -45.23650000     -31.75080000     -69.93790000
H      -44.98500000     -31.12420000     -69.12980000
H      -44.53490000     -32.63400000     -69.96950000
C      -44.88340000     -34.28440000     -72.52030000
H      -45.20920000     -34.08940000     -71.54470000
H      -45.68550000     -34.68020000     -73.16730000
C      -44.44620000     -32.93890000     -73.13450000
C      -43.97800000     -32.93470000     -74.43070000
C      -44.63820000     -31.59860000     -72.53190000
H      -43.85430000     -33.80500000     -75.06100000
C      -44.28170000     -30.69970000     -73.51280000
C      -44.88590000     -31.00750000     -71.21070000
C      -44.68910000     -29.66950000     -71.31430000
S      -43.73220000     -31.37070000     -75.09980000
S      -44.33750000     -29.03570000     -72.94350000
H      -44.75720000     -28.92870000     -70.49360000
