40
Properties=species:S:1:pos:R:3 #=T CELL(abcABC):=T 1.889726e+02=T 90.00000=T Traj:=T positionsangstrom=T Step:=T 0=T Bead:=T pbc="F F F"
C      -43.87780000     -30.51060000     -73.17820000
C      -45.10460000     -30.73700000     -73.73010000
C      -46.21680000     -30.52440000     -72.92730000
C      -46.04980000     -30.17460000     -71.52860000
C      -44.84010000     -30.09320000     -70.99010000
C      -43.70730000     -30.29870000     -71.80960000
H      -42.93950000     -30.57310000     -73.69800000
H      -47.16980000     -30.72110000     -73.40570000
H      -44.59420000     -29.92380000     -69.96920000
H      -42.76420000     -30.26910000     -71.28810000
C      -47.39460000     -29.98240000     -70.68210000
H      -48.22780000     -29.47710000     -71.20130000
H      -47.19870000     -29.48900000     -69.70830000
C      -45.17050000     -31.27030000     -75.16500000
H      -45.98920000     -30.83250000     -75.78260000
H      -44.23650000     -31.09820000     -75.73240000
S      -48.24890000     -31.58330000     -70.36260000
S      -45.47840000     -33.17060000     -75.21370000
C      -47.05480000     -32.62980000     -69.58050000
H      -45.98780000     -32.36510000     -69.79680000
H      -46.99750000     -32.55270000     -68.51920000
C      -44.43310000     -34.11070000     -73.94990000
H      -43.43760000     -33.71110000     -73.78390000
H      -44.30120000     -35.05060000     -74.39260000
C      -45.14250000     -34.26600000     -72.58710000
H      -45.21160000     -33.22600000     -72.24760000
H      -46.13810000     -34.58840000     -72.75060000
C      -47.32090000     -34.10570000     -70.00660000
H      -47.36710000     -34.09810000     -71.13570000
H      -48.30820000     -34.46430000     -69.70940000
C      -46.15660000     -35.00940000     -69.46680000
C      -46.13510000     -35.49500000     -68.15790000
C      -44.97940000     -35.35270000     -70.20360000
H      -46.94920000     -35.31510000     -67.44340000
C      -44.09830000     -36.09110000     -69.38270000
C      -44.46500000     -35.09150000     -71.53330000
C      -43.27220000     -35.75340000     -71.74020000
S      -44.73480000     -36.38090000     -67.80820000
S      -42.65540000     -36.45080000     -70.29260000
H      -42.55070000     -35.67890000     -72.55090000
