40
Properties=species:S:1:pos:R:3 #=T CELL(abcABC):=T 1.889726e+02=T 90.00000=T Traj:=T positionsangstrom=T Step:=T 0=T Bead:=T pbc="F F F"
C      -43.97530000     -30.65940000     -73.25180000
C      -45.20600000     -30.93890000     -73.72670000
C      -46.33370000     -30.71230000     -72.86800000
C      -46.19630000     -30.14300000     -71.59950000
C      -44.90560000     -29.73720000     -71.20490000
C      -43.80930000     -30.09280000     -71.94360000
H      -43.07590000     -30.93760000     -73.76710000
H      -47.39090000     -30.81210000     -73.15000000
H      -44.70690000     -29.34510000     -70.24160000
H      -42.78470000     -29.85150000     -71.62680000
C      -47.36690000     -29.81420000     -70.70510000
H      -48.14950000     -29.24230000     -71.19910000
H      -46.97600000     -29.23860000     -69.85250000
C      -45.46540000     -31.49450000     -75.11350000
H      -46.37980000     -31.28750000     -75.63620000
H      -44.67750000     -31.18350000     -75.75810000
S      -48.27560000     -31.36210000     -70.15850000
S      -45.47470000     -33.36020000     -75.15320000
C      -46.85990000     -32.52460000     -69.66580000
H      -45.95710000     -32.15870000     -70.17100000
H      -46.81480000     -32.36890000     -68.58860000
C      -44.28540000     -33.74480000     -73.75890000
H      -43.64260000     -32.86740000     -73.54020000
H      -43.65460000     -34.54130000     -74.25580000
C      -44.93740000     -34.12890000     -72.43370000
H      -45.31370000     -33.19690000     -71.89110000
H      -45.86750000     -34.73810000     -72.58680000
C      -47.21430000     -33.93130000     -70.01060000
H      -47.47030000     -34.10230000     -71.03290000
H      -48.04890000     -34.19960000     -69.37880000
C      -46.03790000     -34.84980000     -69.50840000
C      -46.11410000     -35.40170000     -68.26130000
C      -44.85850000     -35.27970000     -70.21400000
H      -46.89290000     -35.14050000     -67.54960000
C      -44.11280000     -36.22870000     -69.48230000
C      -44.22260000     -34.99390000     -71.48670000
C      -43.10180000     -35.76470000     -71.69900000
S      -44.75350000     -36.48150000     -67.88790000
S      -42.77290000     -36.85320000     -70.37010000
H      -42.45600000     -35.81240000     -72.55810000
