40
Properties=species:S:1:pos:R:3 #=T CELL(abcABC):=T 1.889726e+02=T 90.00000=T Traj:=T positionsangstrom=T Step:=T 0=T Bead:=T pbc="F F F"
C      -44.03580000     -30.10080000     -73.49190000
C      -45.14790000     -30.87960000     -73.75190000
C      -46.22680000     -30.83450000     -72.88010000
C      -46.21330000     -30.06940000     -71.71050000
C      -45.11240000     -29.25010000     -71.43970000
C      -44.01070000     -29.31780000     -72.29020000
H      -43.16740000     -30.02350000     -74.24960000
H      -47.07630000     -31.37840000     -73.16650000
H      -44.97890000     -28.72370000     -70.56120000
H      -43.25570000     -28.52450000     -72.12230000
C      -47.50220000     -29.84310000     -70.89130000
H      -48.29950000     -29.50010000     -71.61590000
H      -47.37270000     -28.99180000     -70.18790000
C      -45.22410000     -31.67450000     -75.13390000
H      -46.14420000     -31.46510000     -75.73700000
H      -44.32100000     -31.32580000     -75.70100000
S      -48.13610000     -31.34570000     -70.03730000
S      -45.39520000     -33.44520000     -74.90090000
C      -46.65750000     -32.40200000     -69.76180000
H      -45.83150000     -32.14870000     -70.57130000
H      -46.21700000     -32.16500000     -68.79440000
C      -44.12470000     -33.93050000     -73.65800000
H      -43.30300000     -33.23740000     -73.77770000
H      -43.79780000     -34.91610000     -74.05700000
C      -44.70220000     -33.84930000     -72.22360000
H      -44.43200000     -32.90610000     -71.73910000
H      -45.76850000     -33.79120000     -72.28310000
C      -47.08850000     -33.90460000     -69.88410000
H      -47.34840000     -34.07890000     -70.94530000
H      -47.99500000     -33.95380000     -69.32130000
C      -46.03280000     -34.89150000     -69.41640000
C      -46.18160000     -35.52390000     -68.23090000
C      -44.88280000     -35.37000000     -70.14130000
H      -46.92920000     -35.41160000     -67.44740000
C      -44.23630000     -36.42020000     -69.53500000
C      -44.30120000     -35.03800000     -71.38820000
C      -43.15760000     -35.81700000     -71.62710000
S      -44.95990000     -36.84430000     -67.95470000
S      -42.89490000     -37.00750000     -70.42070000
H      -42.50410000     -35.62460000     -72.43520000
