40
Properties=species:S:1:pos:R:3 #=T CELL(abcABC):=T 1.889726e+02=T 90.00000=T Traj:=T positionsangstrom=T Step:=T 0=T Bead:=T pbc="F F F"
C      -41.41610000     -35.06780000     -71.07950000
C      -42.10540000     -34.25390000     -70.16520000
C      -42.50270000     -33.05300000     -70.72390000
C      -42.18240000     -32.59680000     -72.01360000
C      -41.42910000     -33.39650000     -72.83700000
C      -40.94990000     -34.62390000     -72.31690000
H      -41.20270000     -36.03770000     -70.70230000
H      -43.12020000     -32.42820000     -70.04750000
H      -41.21430000     -33.15760000     -73.91380000
H      -40.47030000     -35.36540000     -72.88940000
C      -42.61460000     -31.28880000     -72.61960000
H      -42.30520000     -31.06580000     -73.67190000
H      -42.28500000     -30.46530000     -71.89670000
C      -42.56820000     -34.85110000     -68.84070000
H      -42.05200000     -35.83850000     -68.72100000
H      -42.42640000     -34.13470000     -68.03820000
S      -44.41860000     -30.95700000     -72.64100000
S      -44.42170000     -35.25430000     -68.73730000
C      -45.09830000     -31.75630000     -74.18400000
H      -45.78110000     -31.08310000     -74.55610000
H      -44.36320000     -31.95580000     -74.95720000
C      -44.89020000     -36.17170000     -70.21390000
H      -45.41360000     -37.07180000     -69.89600000
H      -44.02990000     -36.69390000     -70.75620000
C      -45.61630000     -35.42000000     -71.30290000
H      -44.81990000     -34.75180000     -71.77610000
H      -45.93140000     -36.11290000     -72.09730000
C      -45.92950000     -32.96900000     -73.76700000
H      -45.24130000     -33.81330000     -73.45180000
H      -46.47730000     -33.27550000     -74.65360000
C      -46.96480000     -32.64370000     -72.76250000
C      -47.79960000     -31.55560000     -72.92570000
C      -47.34250000     -33.45240000     -71.60190000
H      -47.77680000     -30.83190000     -73.79170000
C      -48.45970000     -32.89020000     -71.00970000
C      -46.83460000     -34.58820000     -70.89650000
C      -47.60660000     -34.86200000     -69.78860000
S      -49.10440000     -31.48210000     -71.76740000
S      -48.96710000     -33.84280000     -69.56440000
H      -47.33010000     -35.64490000     -69.11070000
