40
Properties=species:S:1:pos:R:3 #=T CELL(abcABC):=T 1.889726e+02=T 90.00000=T Traj:=T positionsangstrom=T Step:=T 0=T Bead:=T pbc="F F F"
C      -41.63740000     -35.18990000     -71.08640000
C      -42.27960000     -34.27500000     -70.20290000
C      -42.65570000     -33.11720000     -70.87240000
C      -42.26120000     -32.70370000     -72.12920000
C      -41.52480000     -33.59930000     -72.89760000
C      -41.30050000     -34.89550000     -72.41410000
H      -41.38160000     -36.19040000     -70.63620000
H      -43.33680000     -32.44990000     -70.17240000
H      -41.07430000     -33.24810000     -73.85000000
H      -40.70430000     -35.58590000     -72.95920000
C      -42.43850000     -31.22350000     -72.54670000
H      -41.93150000     -31.00410000     -73.49850000
H      -42.01150000     -30.55700000     -71.84410000
C      -42.68530000     -34.57640000     -68.81170000
H      -42.04660000     -35.30690000     -68.22900000
H      -42.51530000     -33.67510000     -68.27080000
S      -44.28960000     -30.81240000     -72.69400000
S      -44.53360000     -35.01200000     -68.67230000
C      -44.80520000     -31.85690000     -74.12070000
H      -45.23420000     -31.15780000     -74.85900000
H      -43.93120000     -32.35840000     -74.67400000
C      -44.91520000     -36.05080000     -70.18180000
H      -45.56120000     -36.72760000     -69.67910000
H      -44.01760000     -36.64590000     -70.40140000
C      -45.58240000     -35.37210000     -71.36140000
H      -44.92270000     -34.62990000     -71.70640000
H      -45.76120000     -36.17050000     -72.14860000
C      -45.80210000     -33.03400000     -73.73300000
H      -45.15960000     -33.89840000     -73.40830000
H      -46.21390000     -33.50010000     -74.62660000
C      -46.91830000     -32.67180000     -72.73810000
C      -47.74780000     -31.57050000     -72.89800000
C      -47.38220000     -33.50580000     -71.61650000
H      -47.58640000     -30.77750000     -73.71400000
C      -48.42050000     -32.93880000     -70.91220000
C      -46.85410000     -34.66120000     -70.99550000
C      -47.64170000     -35.10040000     -69.93010000
S      -48.95340000     -31.42530000     -71.59780000
S      -48.97690000     -33.94690000     -69.62660000
H      -47.42830000     -35.90230000     -69.28820000
