40
Properties=species:S:1:pos:R:3 #=T CELL(abcABC):=T 1.889726e+02=T 90.00000=T Traj:=T positionsangstrom=T Step:=T 0=T Bead:=T pbc="F F F"
C      -41.92790000     -35.28150000     -71.07440000
C      -42.42930000     -34.20260000     -70.28540000
C      -42.60160000     -32.92820000     -70.86110000
C      -42.33270000     -32.69250000     -72.20430000
C      -41.75740000     -33.73190000     -72.88270000
C      -41.52310000     -34.99730000     -72.39230000
H      -41.83430000     -36.26700000     -70.67330000
H      -42.89500000     -32.08970000     -70.21910000
H      -41.54930000     -33.53670000     -73.92150000
H      -41.15340000     -35.82190000     -73.05990000
C      -42.41610000     -31.30860000     -72.77730000
H      -41.99330000     -31.38030000     -73.77430000
H      -41.93220000     -30.53910000     -72.11370000
C      -42.84380000     -34.38690000     -68.82130000
H      -42.32830000     -35.25890000     -68.46520000
H      -42.61320000     -33.47930000     -68.17230000
S      -44.11640000     -30.63910000     -72.97650000
S      -44.67540000     -34.57510000     -68.64100000
C      -44.83320000     -31.91260000     -74.13700000
H      -45.69430000     -31.45610000     -74.70850000
H      -44.16220000     -32.12580000     -74.96230000
C      -45.02410000     -36.10840000     -69.63250000
H      -45.64900000     -36.71120000     -68.92420000
H      -44.18340000     -36.64740000     -69.74150000
C      -45.65350000     -35.77030000     -70.99340000
H      -44.92990000     -35.25800000     -71.69570000
H      -45.72650000     -36.78340000     -71.50420000
C      -45.44280000     -33.13330000     -73.46430000
H      -44.71800000     -33.65780000     -72.90220000
H      -45.90110000     -33.76330000     -74.29270000
C      -46.58820000     -32.82810000     -72.54430000
C      -47.18830000     -31.58830000     -72.61960000
C      -47.20040000     -33.63690000     -71.49270000
H      -46.92920000     -30.79750000     -73.27000000
C      -48.36430000     -33.03670000     -71.02400000
C      -46.91480000     -34.95310000     -70.89680000
C      -47.95530000     -35.27750000     -70.06410000
S      -48.67620000     -31.35900000     -71.65110000
S      -49.18440000     -34.02560000     -69.86880000
H      -48.11660000     -36.16490000     -69.44170000
