40
Properties=species:S:1:pos:R:3 #=T CELL(abcABC):=T 1.889726e+02=T 90.00000=T Traj:=T positionsangstrom=T Step:=T 0=T Bead:=T pbc="F F F"
C      -42.07950000     -35.10730000     -70.98180000
C      -42.53720000     -33.96950000     -70.27020000
C      -42.52210000     -32.74290000     -70.92890000
C      -42.17650000     -32.68640000     -72.29030000
C      -41.81100000     -33.80150000     -72.94080000
C      -41.66620000     -35.01610000     -72.28140000
H      -41.99820000     -36.04560000     -70.52010000
H      -42.89410000     -31.93150000     -70.41010000
H      -41.37000000     -33.77020000     -73.94560000
H      -41.22060000     -35.90200000     -72.75890000
C      -42.17410000     -31.36360000     -72.97630000
H      -41.65800000     -31.35900000     -73.93400000
H      -41.54120000     -30.72910000     -72.42440000
C      -42.92800000     -34.18090000     -68.87810000
H      -42.22850000     -34.86510000     -68.32540000
H      -42.73150000     -33.25530000     -68.39860000
S      -43.88830000     -30.70630000     -73.16810000
S      -44.71820000     -34.47000000     -68.60520000
C      -44.62530000     -32.15610000     -73.98340000
H      -45.50430000     -31.81350000     -74.51140000
H      -43.83010000     -32.53570000     -74.60620000
C      -44.99370000     -35.96080000     -69.56070000
H      -45.55120000     -36.72660000     -69.06960000
H      -44.00720000     -36.42600000     -69.79000000
C      -45.75170000     -35.77500000     -70.93280000
H      -45.10810000     -35.38350000     -71.70900000
H      -46.06490000     -36.76380000     -71.24890000
C      -45.19040000     -33.22100000     -72.99610000
H      -44.57910000     -33.43530000     -72.08520000
H      -45.08250000     -34.16870000     -73.46120000
C      -46.55170000     -32.85750000     -72.42080000
C      -47.17030000     -31.62630000     -72.66190000
C      -47.22450000     -33.62820000     -71.37740000
H      -47.03750000     -31.00650000     -73.45980000
C      -48.46970000     -33.07590000     -71.07370000
C      -47.01220000     -34.94910000     -70.78500000
C      -48.08160000     -35.29850000     -70.00030000
S      -48.73450000     -31.44270000     -71.72620000
S      -49.37410000     -34.09330000     -69.99840000
H      -48.28200000     -36.27820000     -69.57240000
