40
Properties=species:S:1:pos:R:3 #=T CELL(abcABC):=T 1.889726e+02=T 90.00000=T Traj:=T positionsangstrom=T Step:=T 0=T Bead:=T pbc="F F F"
C      -42.12440000     -35.05100000     -71.02880000
C      -42.53320000     -33.92250000     -70.29240000
C      -42.33810000     -32.67720000     -70.88950000
C      -41.87410000     -32.60860000     -72.20440000
C      -41.48160000     -33.78060000     -72.88020000
C      -41.63380000     -35.02850000     -72.32270000
H      -42.22350000     -36.04260000     -70.54520000
H      -42.44180000     -31.78950000     -70.26390000
H      -41.27000000     -33.86090000     -73.94320000
H      -41.52690000     -35.95540000     -72.80000000
C      -41.98770000     -31.27780000     -73.03550000
H      -41.52990000     -31.39940000     -74.08540000
H      -41.40690000     -30.50570000     -72.51190000
C      -43.00590000     -33.95450000     -68.88130000
H      -42.53460000     -34.80830000     -68.29530000
H      -42.80630000     -33.02650000     -68.42760000
S      -43.72530000     -30.83660000     -73.25030000
S      -44.82020000     -34.23550000     -68.71400000
C      -44.48840000     -32.39410000     -73.95550000
H      -45.21170000     -32.08650000     -74.71880000
H      -43.75950000     -32.99590000     -74.48310000
C      -45.27040000     -35.91880000     -69.49500000
H      -46.01740000     -36.37060000     -68.84360000
H      -44.24880000     -36.57180000     -69.39570000
C      -45.86430000     -35.77230000     -70.89130000
H      -45.18800000     -35.32640000     -71.61760000
H      -46.17520000     -36.80940000     -71.21050000
C      -45.11110000     -33.27820000     -72.82120000
H      -44.29480000     -33.28960000     -72.02510000
H      -45.23890000     -34.31060000     -73.18660000
C      -46.45240000     -32.82600000     -72.19840000
C      -47.14040000     -31.62360000     -72.43510000
C      -47.26190000     -33.68010000     -71.35520000
H      -46.83790000     -30.82780000     -73.04630000
C      -48.53220000     -33.17560000     -71.12540000
C      -47.14710000     -34.95160000     -70.73450000
C      -48.21860000     -35.30650000     -69.94880000
S      -48.83040000     -31.59520000     -71.84980000
S      -49.51590000     -34.12050000     -70.04190000
H      -48.31720000     -36.26780000     -69.50000000
