40
Properties=species:S:1:pos:R:3 #=T CELL(abcABC):=T 1.889726e+02=T 90.00000=T Traj:=T positionsangstrom=T Step:=T 0=T Bead:=T pbc="F F F"
C      -41.65220000     -35.05630000     -70.75470000
C      -42.25750000     -33.96170000     -70.08640000
C      -42.35980000     -32.70090000     -70.78600000
C      -41.97190000     -32.54830000     -72.11890000
C      -41.38160000     -33.63530000     -72.72820000
C      -41.14980000     -34.81910000     -72.03750000
H      -41.52040000     -35.94760000     -70.28810000
H      -42.69070000     -31.83020000     -70.24790000
H      -41.12330000     -33.62560000     -73.79090000
H      -40.52180000     -35.62600000     -72.49830000
C      -42.25060000     -31.26990000     -72.82520000
H      -41.43100000     -31.29080000     -73.57830000
H      -42.12980000     -30.43750000     -72.20190000
C      -42.87140000     -33.98850000     -68.71170000
H      -42.71410000     -34.94740000     -68.24480000
H      -42.57050000     -33.13500000     -68.16290000
S      -44.01090000     -31.11660000     -73.51920000
S      -44.67210000     -33.80040000     -68.77630000
C      -44.38600000     -32.90350000     -73.89510000
H      -45.09420000     -32.86930000     -74.74870000
H      -43.54240000     -33.42360000     -74.28550000
C      -45.29020000     -35.54380000     -69.04940000
H      -45.95360000     -35.66190000     -68.21680000
H      -44.41160000     -36.25830000     -68.97640000
C      -46.04380000     -35.75400000     -70.32870000
H      -45.41800000     -35.67030000     -71.22140000
H      -46.37120000     -36.80670000     -70.26330000
C      -45.04990000     -33.55450000     -72.70250000
H      -44.40400000     -33.49490000     -71.77160000
H      -45.14210000     -34.62370000     -72.90250000
C      -46.43850000     -33.02580000     -72.26710000
C      -47.02930000     -31.81110000     -72.61080000
C      -47.30850000     -33.69450000     -71.34460000
H      -46.53310000     -31.13410000     -73.25560000
C      -48.56520000     -33.07120000     -71.22760000
C      -47.30340000     -34.93830000     -70.58460000
C      -48.52130000     -35.21810000     -70.07670000
S      -48.70150000     -31.63290000     -72.09610000
S      -49.76440000     -34.11730000     -70.49690000
H      -48.83950000     -36.11440000     -69.51750000
