40
Properties=species:S:1:pos:R:3 #=T CELL(abcABC):=T 1.889726e+02=T 90.00000=T Traj:=T positionsangstrom=T Step:=T 0=T Bead:=T pbc="F F F"
C      -41.68500000     -34.81400000     -70.43010000
C      -42.38090000     -33.68320000     -69.99670000
C      -42.38330000     -32.57090000     -70.85390000
C      -41.78810000     -32.51570000     -72.10200000
C      -40.97700000     -33.68510000     -72.50130000
C      -40.96510000     -34.79990000     -71.66990000
H      -41.72670000     -35.72680000     -69.78460000
H      -42.80360000     -31.67210000     -70.39710000
H      -40.49690000     -33.59870000     -73.46370000
H      -40.42050000     -35.63930000     -71.97750000
C      -42.00640000     -31.33300000     -73.00860000
H      -41.48630000     -31.42030000     -73.92910000
H      -41.66460000     -30.37510000     -72.49080000
C      -43.18140000     -33.67210000     -68.69550000
H      -42.84760000     -34.47740000     -68.06290000
H      -42.91920000     -32.78420000     -68.11160000
S      -43.85550000     -31.08790000     -73.42560000
S      -45.09330000     -33.84430000     -68.76490000
C      -44.35830000     -32.79510000     -73.83870000
H      -44.99810000     -32.72250000     -74.68460000
H      -43.40170000     -33.33260000     -74.22460000
C      -45.43540000     -35.60840000     -69.06810000
H      -46.18580000     -35.85300000     -68.25040000
H      -44.54020000     -36.28370000     -68.94750000
C      -45.99010000     -35.87630000     -70.46220000
H      -45.30490000     -35.54070000     -71.23550000
H      -46.14010000     -36.90130000     -70.73820000
C      -45.10830000     -33.66800000     -72.75510000
H      -44.59360000     -33.78800000     -71.81930000
H      -45.19530000     -34.71610000     -73.12520000
C      -46.49670000     -33.17680000     -72.52030000
C      -47.08490000     -32.01740000     -72.99230000
C      -47.36940000     -33.84610000     -71.56360000
H      -46.74970000     -31.40060000     -73.75670000
C      -48.59450000     -33.22390000     -71.42130000
C      -47.25960000     -34.96840000     -70.64560000
C      -48.38280000     -35.17180000     -69.92090000
S      -48.73310000     -31.81240000     -72.46680000
S      -49.62280000     -33.97250000     -70.11650000
H      -48.54960000     -35.90060000     -69.12560000
