40
Properties=species:S:1:pos:R:3 #=T CELL(abcABC):=T 1.889726e+02=T 90.00000=T Traj:=T positionsangstrom=T Step:=T 0=T Bead:=T pbc="F F F"
C      -41.78070000     -34.76190000     -70.17270000
C      -42.59880000     -33.60070000     -69.93840000
C      -42.72190000     -32.64390000     -70.87990000
C      -41.87480000     -32.63020000     -72.04000000
C      -40.97690000     -33.66290000     -72.23340000
C      -40.99190000     -34.82480000     -71.32840000
H      -41.66750000     -35.47600000     -69.36460000
H      -43.43980000     -31.85170000     -70.81600000
H      -40.23090000     -33.69220000     -73.05960000
H      -40.25750000     -35.62180000     -71.38990000
C      -41.91380000     -31.49500000     -73.03570000
H      -41.23950000     -31.57360000     -73.90580000
H      -41.43090000     -30.68340000     -72.48350000
C      -43.33520000     -33.55490000     -68.57270000
H      -43.12810000     -34.36890000     -67.90130000
H      -43.25460000     -32.51230000     -68.19480000
S      -43.69890000     -31.08080000     -73.37890000
S      -45.14590000     -33.68360000     -68.91650000
C      -44.33450000     -32.67500000     -73.99390000
H      -45.01370000     -32.52790000     -74.84530000
H      -43.48610000     -33.22910000     -74.37780000
C      -45.21610000     -35.51790000     -69.12920000
H      -45.78950000     -35.93960000     -68.28010000
H      -44.21970000     -35.78990000     -69.07400000
C      -46.02290000     -35.86960000     -70.36620000
H      -45.23740000     -35.95160000     -71.16280000
H      -46.40280000     -36.90030000     -70.21650000
C      -45.07290000     -33.60140000     -72.90730000
H      -44.53670000     -33.71290000     -71.93280000
H      -45.04870000     -34.57770000     -73.42380000
C      -46.48750000     -33.27830000     -72.64880000
C      -47.19140000     -32.29000000     -73.29030000
C      -47.26790000     -33.86670000     -71.56160000
H      -46.87640000     -31.74740000     -74.17190000
C      -48.51230000     -33.26410000     -71.39960000
C      -47.15300000     -34.88170000     -70.56990000
C      -48.21890000     -35.03320000     -69.73410000
S      -48.84770000     -32.09810000     -72.59790000
S      -49.54130000     -33.85230000     -70.14130000
H      -48.35010000     -35.73690000     -68.90610000
