40
Properties=species:S:1:pos:R:3 #=T CELL(abcABC):=T 1.889726e+02=T 90.00000=T Traj:=T positionsangstrom=T Step:=T 0=T Bead:=T pbc="F F F"
C      -47.39700000     -33.10080000     -74.39410000
C      -46.64790000     -31.95660000     -74.08830000
C      -46.86980000     -31.19700000     -72.94620000
C      -47.91110000     -31.52460000     -72.06030000
C      -48.70690000     -32.62070000     -72.36240000
C      -48.41860000     -33.43640000     -73.50350000
H      -47.15760000     -33.75720000     -75.27770000
H      -46.10250000     -30.35860000     -72.79470000
H      -49.59490000     -32.79990000     -71.73990000
H      -49.09030000     -34.26760000     -73.80720000
C      -48.05210000     -30.67530000     -70.79380000
H      -48.93770000     -30.01840000     -70.84220000
H      -47.15660000     -30.05810000     -70.66720000
C      -45.50830000     -31.60420000     -75.02010000
H      -45.76320000     -31.71670000     -76.05650000
H      -45.30640000     -30.58520000     -74.85620000
S      -48.19570000     -31.73280000     -69.32110000
S      -43.94530000     -32.59880000     -74.84840000
C      -46.87190000     -33.02150000     -69.50790000
H      -46.72780000     -33.47880000     -68.52390000
H      -47.18370000     -33.84750000     -70.24740000
C      -43.80050000     -32.91900000     -73.05930000
H      -44.00620000     -31.92670000     -72.63580000
H      -42.72510000     -33.03760000     -72.77890000
C      -44.68070000     -34.10420000     -72.68840000
H      -45.70290000     -33.88920000     -72.47890000
H      -44.80910000     -34.75990000     -73.56240000
C      -45.51900000     -32.36220000     -69.75580000
H      -45.51760000     -31.32700000     -69.27650000
H      -45.37970000     -32.14720000     -70.84170000
C      -44.40410000     -33.26650000     -69.28560000
C      -43.78370000     -33.27640000     -68.07910000
C      -43.90000000     -34.38910000     -70.18470000
H      -43.88330000     -32.48120000     -67.27030000
C      -43.18730000     -35.30790000     -69.41390000
C      -44.10310000     -34.92400000     -71.52470000
C      -43.69930000     -36.21790000     -71.68670000
S      -42.71740000     -34.62820000     -67.82070000
S      -42.98520000     -36.85710000     -70.18810000
H      -43.65330000     -36.72440000     -72.63330000
