40
Properties=species:S:1:pos:R:3 #=T CELL(abcABC):=T 1.889726e+02=T 90.00000=T Traj:=T positionsangstrom=T Step:=T 0=T Bead:=T pbc="F F F"
C      -47.98210000     -33.09010000     -74.18690000
C      -47.06050000     -32.09140000     -73.91220000
C      -47.29590000     -31.26980000     -72.82280000
C      -48.37810000     -31.52140000     -71.96070000
C      -49.28350000     -32.49810000     -72.26000000
C      -49.10040000     -33.25830000     -73.37760000
H      -47.86960000     -33.72080000     -75.09630000
H      -46.61240000     -30.44340000     -72.63640000
H      -50.23260000     -32.61960000     -71.60880000
H      -49.78980000     -33.98230000     -73.77720000
C      -48.39550000     -30.67570000     -70.73370000
H      -49.35790000     -30.32920000     -70.46850000
H      -47.62950000     -29.95160000     -70.88830000
C      -45.85630000     -31.93630000     -74.82460000
H      -46.25180000     -31.63600000     -75.81320000
H      -45.18720000     -31.14530000     -74.50750000
S      -47.89920000     -31.64390000     -69.18150000
S      -44.89180000     -33.48960000     -75.11850000
C      -46.44300000     -32.71540000     -69.56620000
H      -46.61420000     -33.43800000     -68.79770000
H      -46.63460000     -33.25480000     -70.48980000
C      -44.12330000     -33.89700000     -73.50350000
H      -43.75940000     -32.95340000     -72.98650000
H      -43.32500000     -34.52730000     -73.78950000
C      -45.02450000     -34.53880000     -72.49670000
H      -45.87640000     -33.95800000     -72.26890000
H      -45.39610000     -35.46240000     -73.00600000
C      -45.01540000     -32.06090000     -69.61490000
H      -44.89050000     -31.27170000     -68.87460000
H      -44.84560000     -31.61430000     -70.59540000
C      -44.01230000     -33.10480000     -69.33500000
C      -43.12810000     -32.92490000     -68.30720000
C      -43.77140000     -34.32900000     -70.04620000
H      -43.21750000     -32.05240000     -67.63620000
C      -42.64290000     -34.91950000     -69.50780000
C      -44.23820000     -34.96700000     -71.27420000
C      -43.55950000     -36.17350000     -71.42270000
S      -42.00040000     -34.20240000     -68.06750000
S      -42.28090000     -36.39100000     -70.28600000
H      -43.69930000     -36.87680000     -72.25000000
