40
Properties=species:S:1:pos:R:3 #=T CELL(abcABC):=T 1.889726e+02=T 90.00000=T Traj:=T positionsangstrom=T Step:=T 0=T Bead:=T pbc="F F F"
C      -48.55150000     -33.04790000     -74.02420000
C      -47.26840000     -32.50310000     -73.92470000
C      -47.04870000     -31.69690000     -72.77920000
C      -47.95780000     -31.48350000     -71.78520000
C      -49.25600000     -32.03660000     -71.99670000
C      -49.56670000     -32.89140000     -73.03350000
H      -48.65330000     -33.68230000     -74.85430000
H      -46.12130000     -31.16570000     -72.69800000
H      -50.00500000     -31.75880000     -71.33650000
H      -50.58310000     -33.21740000     -73.10130000
C      -47.69400000     -30.51900000     -70.59600000
H      -48.39940000     -29.66520000     -70.66500000
H      -46.63790000     -30.18930000     -70.62080000
C      -46.18360000     -32.66330000     -75.03120000
H      -46.57020000     -32.24800000     -76.02490000
H      -45.32720000     -32.09220000     -74.73630000
S      -47.81990000     -31.44790000     -69.03430000
S      -45.75500000     -34.37650000     -75.22380000
C      -46.35590000     -32.52330000     -69.17040000
H      -46.06120000     -32.76110000     -68.14950000
H      -46.76280000     -33.49040000     -69.63560000
C      -44.42320000     -34.68030000     -73.99700000
H      -43.52890000     -34.22750000     -74.37160000
H      -44.29140000     -35.73810000     -73.93090000
C      -44.71710000     -34.24280000     -72.56220000
H      -45.00840000     -33.18000000     -72.53170000
H      -45.57320000     -34.83220000     -72.21390000
C      -45.12550000     -31.98990000     -69.96870000
H      -44.97100000     -30.91630000     -69.68890000
H      -45.19450000     -32.03330000     -71.11160000
C      -43.94230000     -32.88750000     -69.52550000
C      -43.41850000     -32.85960000     -68.26290000
C      -43.43770000     -33.98270000     -70.25260000
H      -43.68150000     -32.15840000     -67.56140000
C      -42.54890000     -34.75770000     -69.47140000
C      -43.56180000     -34.56330000     -71.60180000
C      -42.83620000     -35.73670000     -71.68730000
S      -42.34270000     -34.12560000     -67.85420000
S      -41.71530000     -36.09940000     -70.33790000
H      -42.86840000     -36.42470000     -72.55590000
