40
Properties=species:S:1:pos:R:3 #=T CELL(abcABC):=T 1.889726e+02=T 90.00000=T Traj:=T positionsangstrom=T Step:=T 0=T Bead:=T pbc="F F F"
C      -49.22530000     -33.26490000     -74.00830000
C      -47.84970000     -32.80750000     -73.96410000
C      -47.48180000     -31.89740000     -72.95920000
C      -48.36210000     -31.50310000     -71.89860000
C      -49.61990000     -32.06510000     -71.84570000
C      -50.04010000     -32.91680000     -72.93670000
H      -49.65820000     -33.75160000     -74.87420000
H      -46.49140000     -31.56320000     -73.01980000
H      -50.42750000     -31.85040000     -71.15020000
H      -51.11860000     -33.23340000     -72.96520000
C      -47.83100000     -30.45200000     -70.93140000
H      -48.52190000     -29.64290000     -70.67530000
H      -46.95410000     -29.97340000     -71.29750000
C      -46.87190000     -33.30020000     -75.01100000
H      -47.44740000     -33.46970000     -75.93000000
H      -46.18210000     -32.54920000     -75.25430000
S      -47.47410000     -31.17340000     -69.18650000
S      -46.05530000     -34.91210000     -74.65920000
C      -46.19260000     -32.43780000     -69.71550000
H      -46.19170000     -33.23630000     -68.94230000
H      -46.40470000     -32.93300000     -70.65450000
C      -44.42780000     -34.30660000     -73.94980000
H      -43.94470000     -33.48990000     -74.54080000
H      -43.81250000     -35.19970000     -74.18080000
C      -44.40220000     -33.76100000     -72.49190000
H      -44.23350000     -32.68580000     -72.63420000
H      -45.36200000     -33.80940000     -71.92020000
C      -44.73910000     -31.82120000     -69.81370000
H      -44.72510000     -30.96770000     -69.13990000
H      -44.50100000     -31.45850000     -70.81780000
C      -43.74810000     -32.89920000     -69.38670000
C      -43.33370000     -33.01630000     -68.08300000
C      -43.06820000     -33.85460000     -70.24740000
H      -43.79140000     -32.33640000     -67.31540000
C      -42.17360000     -34.65580000     -69.50730000
C      -43.24930000     -34.30380000     -71.61560000
C      -42.28700000     -35.25800000     -71.92100000
S      -42.29330000     -34.35490000     -67.78990000
S      -41.38180000     -35.87390000     -70.50780000
H      -42.07170000     -35.69020000     -72.89170000
