40
Properties=species:S:1:pos:R:3 #=T CELL(abcABC):=T 1.889726e+02=T 90.00000=T Traj:=T positionsangstrom=T Step:=T 0=T Bead:=T pbc="F F F"
C      -47.55520000     -36.51550000     -70.77070000
C      -46.58790000     -36.38110000     -69.78840000
C      -45.29460000     -36.60810000     -70.10830000
C      -44.76210000     -36.90170000     -71.39250000
C      -45.76020000     -37.18420000     -72.31770000
C      -47.10930000     -37.01110000     -72.02890000
H      -48.61020000     -36.44260000     -70.62880000
H      -44.63180000     -36.42970000     -69.33200000
H      -45.52820000     -37.45240000     -73.34240000
H      -47.77160000     -37.13490000     -72.90560000
C      -43.31750000     -36.86700000     -71.76310000
H      -43.03190000     -37.89330000     -71.98790000
H      -42.77990000     -36.60480000     -70.92510000
C      -46.90750000     -35.92710000     -68.34890000
H      -47.96520000     -36.10660000     -68.12350000
H      -46.30360000     -36.53760000     -67.65950000
S      -43.07390000     -35.64960000     -73.23240000
S      -46.50870000     -34.25220000     -67.95790000
C      -44.15940000     -34.14510000     -72.77760000
H      -44.38780000     -33.65330000     -73.76990000
H      -45.01940000     -34.52820000     -72.28130000
C      -47.27490000     -33.25070000     -69.24550000
H      -47.40870000     -32.20930000     -68.91010000
H      -48.23390000     -33.60990000     -69.40430000
C      -46.33390000     -33.11380000     -70.54620000
H      -45.35380000     -33.49120000     -70.21360000
H      -46.63000000     -33.75350000     -71.40330000
C      -43.27730000     -33.16350000     -71.91820000
H      -42.22160000     -33.27910000     -72.15550000
H      -43.29730000     -33.44040000     -70.86010000
C      -43.69460000     -31.72400000     -72.07840000
C      -43.05870000     -30.79480000     -72.87710000
C      -44.93560000     -31.20290000     -71.58890000
H      -42.15480000     -31.10030000     -73.43650000
C      -45.07870000     -29.88620000     -72.03660000
C      -46.21330000     -31.66900000     -71.09550000
C      -47.17970000     -30.69890000     -71.11770000
S      -43.80610000     -29.19230000     -73.02580000
S      -46.60160000     -29.13000000     -71.73710000
H      -48.18290000     -30.82180000     -70.79310000
