40
Properties=species:S:1:pos:R:3 #=T CELL(abcABC):=T 1.889726e+02=T 90.00000=T Traj:=T positionsangstrom=T Step:=T 0=T Bead:=T pbc="F F F"
C      -49.69220000     -33.68050000     -73.78620000
C      -48.33820000     -33.33660000     -73.87600000
C      -47.77000000     -32.43880000     -72.93350000
C      -48.48050000     -31.86590000     -71.89570000
C      -49.83120000     -32.24480000     -71.77790000
C      -50.39460000     -33.07940000     -72.72600000
H      -50.07870000     -34.51780000     -74.36690000
H      -46.71910000     -32.12010000     -72.95830000
H      -50.37110000     -31.98110000     -70.86620000
H      -51.41640000     -33.29420000     -72.55150000
C      -47.71460000     -30.96770000     -70.93480000
H      -48.18170000     -30.02530000     -70.83660000
H      -46.68360000     -30.72630000     -71.33060000
C      -47.39850000     -34.10570000     -74.82710000
H      -47.81390000     -34.91600000     -75.42270000
H      -46.97610000     -33.44430000     -75.63170000
S      -47.52560000     -31.58290000     -69.13770000
S      -46.04290000     -35.00320000     -73.91090000
C      -45.87890000     -32.57900000     -69.14470000
H      -45.95960000     -33.16650000     -68.22630000
H      -45.85850000     -33.29790000     -69.99260000
C      -44.68430000     -33.61670000     -73.82350000
H      -44.98120000     -32.79460000     -74.47240000
H      -43.93120000     -34.20830000     -74.34750000
C      -44.51980000     -33.23400000     -72.39040000
H      -44.50170000     -32.13700000     -72.37920000
H      -45.42220000     -33.45500000     -71.78400000
C      -44.66810000     -31.70750000     -69.41570000
H      -44.48120000     -31.01900000     -68.58210000
H      -44.71810000     -31.29890000     -70.45240000
C      -43.39180000     -32.61790000     -69.37940000
C      -42.72610000     -32.78610000     -68.20610000
C      -43.04310000     -33.58360000     -70.34470000
H      -42.77290000     -31.98870000     -67.42360000
C      -42.01200000     -34.41210000     -69.94380000
C      -43.38050000     -33.85730000     -71.75420000
C      -42.73430000     -34.84160000     -72.30000000
S      -41.37990000     -33.94260000     -68.35740000
S      -41.53770000     -35.56420000     -71.15100000
H      -42.91210000     -35.32030000     -73.27440000
