40
Properties=species:S:1:pos:R:3 #=T CELL(abcABC):=T 1.889726e+02=T 90.00000=T Traj:=T positionsangstrom=T Step:=T 0=T Bead:=T pbc="F F F"
C      -48.64860000     -31.81790000     -72.92230000
C      -48.25410000     -33.17270000     -73.04370000
C      -48.28020000     -34.00450000     -71.94120000
C      -48.79850000     -33.58890000     -70.72120000
C      -49.21150000     -32.28910000     -70.60190000
C      -49.16770000     -31.41030000     -71.71410000
H      -48.67250000     -31.29930000     -73.81480000
H      -47.83060000     -34.97590000     -71.98040000
H      -49.52370000     -31.90270000     -69.60680000
H      -49.43740000     -30.36230000     -71.58180000
C      -48.99270000     -34.56250000     -69.52920000
H      -49.47830000     -35.50180000     -69.87110000
H      -49.52010000     -34.03010000     -68.67160000
C      -47.68290000     -33.61740000     -74.33260000
H      -48.44480000     -34.07600000     -75.00680000
H      -47.13440000     -32.87340000     -74.81730000
S      -47.34660000     -35.37920000     -69.07670000
S      -46.35730000     -34.97780000     -74.04420000
C      -46.09570000     -34.03110000     -68.92550000
H      -46.41410000     -33.04120000     -68.53550000
H      -45.32620000     -34.40980000     -68.15840000
C      -44.97870000     -33.88770000     -73.69850000
H      -45.28100000     -33.11000000     -72.97690000
H      -44.52960000     -33.40480000     -74.56730000
C      -43.80640000     -34.63960000     -73.02390000
H      -44.28770000     -35.32640000     -72.27870000
H      -43.32460000     -35.21650000     -73.75660000
C      -45.34570000     -33.78520000     -70.21110000
H      -46.10260000     -33.45450000     -70.94910000
H      -45.00940000     -34.72360000     -70.60930000
C      -44.15680000     -32.86370000     -70.16300000
C      -43.87010000     -31.94940000     -69.18210000
C      -43.04400000     -33.10140000     -71.00740000
H      -44.67970000     -31.59230000     -68.51770000
C      -41.93450000     -32.32170000     -70.51840000
C      -42.77470000     -33.79120000     -72.20640000
C      -41.46110000     -33.62300000     -72.70620000
S      -42.23260000     -31.42990000     -69.06400000
S      -40.53280000     -32.56510000     -71.67440000
H      -41.16120000     -34.06280000     -73.65520000
