40
Properties=species:S:1:pos:R:3 #=T CELL(abcABC):=T 1.889726e+02=T 90.00000=T Traj:=T positionsangstrom=T Step:=T 0=T Bead:=T pbc="F F F"
C      -44.28890000     -37.17440000     -70.44640000
C      -43.44060000     -36.14750000     -70.15200000
C      -43.01550000     -35.32880000     -71.18370000
C      -43.40250000     -35.64410000     -72.50760000
C      -44.24560000     -36.72540000     -72.77460000
C      -44.63720000     -37.52190000     -71.71860000
H      -44.74550000     -37.70570000     -69.57620000
H      -42.42850000     -34.42450000     -71.03410000
H      -44.43190000     -36.95320000     -73.85090000
H      -45.20510000     -38.43930000     -71.90290000
C      -42.69580000     -34.72220000     -73.50640000
H      -42.08750000     -35.27170000     -74.25370000
H      -41.95910000     -34.14440000     -72.94560000
C      -43.15280000     -35.77950000     -68.74960000
H      -43.65190000     -36.31450000     -67.92180000
H      -42.07480000     -35.99390000     -68.50790000
S      -43.94440000     -33.56180000     -74.30820000
S      -43.27110000     -33.94500000     -68.39280000
C      -43.58310000     -31.92880000     -73.43410000
H      -42.50140000     -31.77570000     -73.26470000
H      -43.89750000     -31.05630000     -74.06340000
C      -44.95400000     -33.54060000     -69.04200000
H      -45.73220000     -34.17370000     -68.54840000
H      -44.87200000     -33.86840000     -70.05510000
C      -45.16160000     -31.98890000     -68.96630000
H      -45.26050000     -31.62910000     -67.93000000
H      -44.34260000     -31.53520000     -69.50020000
C      -44.38060000     -31.86780000     -72.15820000
H      -43.88870000     -31.10820000     -71.54060000
H      -44.21000000     -32.75010000     -71.58520000
C      -45.84020000     -31.69480000     -72.27240000
C      -46.51820000     -31.55030000     -73.45470000
C      -46.74460000     -31.59810000     -71.14240000
H      -46.08400000     -31.44180000     -74.42440000
C      -48.07140000     -31.51610000     -71.47930000
C      -46.52010000     -31.74140000     -69.73020000
C      -47.65210000     -31.63940000     -69.02360000
S      -48.28080000     -31.59820000     -73.20070000
S      -49.08090000     -31.41080000     -70.04990000
H      -47.71060000     -31.80030000     -67.96590000
