40
Properties=species:S:1:pos:R:3 #=T CELL(abcABC):=T 1.889726e+02=T 90.00000=T Traj:=T positionsangstrom=T Step:=T 0=T Bead:=T pbc="F F F"
C      -49.06040000     -32.23880000     -73.22980000
C      -48.24980000     -33.46200000     -73.22840000
C      -48.17000000     -34.23800000     -72.06640000
C      -48.91520000     -33.84350000     -70.89440000
C      -49.59550000     -32.61150000     -70.88350000
C      -49.71420000     -31.86630000     -72.07180000
H      -49.14170000     -31.56540000     -74.06420000
H      -47.73200000     -35.24300000     -72.08900000
H      -50.11970000     -32.32470000     -69.97700000
H      -50.23720000     -30.82780000     -72.02850000
C      -48.87860000     -34.63990000     -69.67010000
H      -49.47440000     -35.52420000     -69.82840000
H      -49.16440000     -34.03160000     -68.85640000
C      -47.42070000     -33.66960000     -74.54700000
H      -48.17450000     -33.91340000     -75.27960000
H      -47.02240000     -32.77160000     -74.97020000
S      -47.11270000     -35.39300000     -69.40300000
S      -46.10670000     -34.97400000     -74.29610000
C      -46.04500000     -33.93350000     -69.03140000
H      -46.50590000     -33.33330000     -68.24690000
H      -45.13260000     -34.34940000     -68.65500000
C      -44.74690000     -33.81870000     -73.61360000
H      -45.26070000     -33.03970000     -73.06800000
H      -44.12670000     -33.41530000     -74.42840000
C      -43.87620000     -34.59480000     -72.56020000
H      -44.45910000     -35.03210000     -71.83160000
H      -43.40660000     -35.44990000     -73.10440000
C      -45.64590000     -33.09470000     -70.27930000
H      -46.44390000     -32.38750000     -70.33170000
H      -45.79400000     -33.66180000     -71.20150000
C      -44.21750000     -32.53950000     -70.05050000
C      -43.96950000     -31.68460000     -69.01000000
C      -42.98060000     -32.89150000     -70.77930000
H      -44.66260000     -31.18980000     -68.37890000
C      -41.89400000     -32.23600000     -70.31100000
C      -42.76840000     -33.80090000     -71.89120000
C      -41.47180000     -33.69490000     -72.33780000
S      -42.29840000     -31.25030000     -68.86020000
S      -40.47940000     -32.61650000     -71.29260000
H      -41.01810000     -34.28090000     -73.16400000
