40
Properties=species:S:1:pos:R:3 #=T CELL(abcABC):=T 1.889726e+02=T 90.00000=T Traj:=T positionsangstrom=T Step:=T 0=T Bead:=T pbc="F F F"
C      -45.52930000     -37.20910000     -69.79020000
C      -44.82680000     -36.27070000     -69.05040000
C      -45.49130000     -35.15470000     -68.43320000
C      -46.79440000     -34.84680000     -68.82560000
C      -47.51500000     -35.80350000     -69.53790000
C      -46.85900000     -37.00150000     -69.97680000
H      -45.13680000     -38.01510000     -70.34870000
H      -44.94960000     -34.47120000     -67.73450000
H      -48.59960000     -35.83410000     -69.75850000
H      -47.55460000     -37.70370000     -70.47190000
C      -47.58850000     -33.65330000     -68.29730000
H      -48.11540000     -33.77250000     -67.36810000
H      -48.33090000     -33.36010000     -69.07140000
C      -43.35480000     -36.45430000     -68.92330000
H      -43.03370000     -35.99800000     -67.95330000
H      -42.90170000     -37.45680000     -68.95000000
S      -46.43110000     -32.18220000     -68.23040000
S      -42.43040000     -35.37400000     -70.18280000
C      -46.77420000     -31.44640000     -69.91230000
H      -47.81070000     -31.02670000     -69.87750000
H      -46.01360000     -30.63200000     -70.05080000
C      -43.53680000     -34.96460000     -71.56460000
H      -44.52240000     -35.42710000     -71.47700000
H      -43.02820000     -35.35540000     -72.47440000
C      -43.41920000     -33.37690000     -71.66400000
H      -43.69640000     -32.86820000     -70.82330000
H      -42.35430000     -33.16080000     -71.65410000
C      -46.74560000     -32.52660000     -70.97910000
H      -47.75100000     -32.98390000     -70.95510000
H      -45.99920000     -33.25290000     -70.63950000
C      -46.41280000     -31.84630000     -72.30560000
C      -47.26740000     -30.88090000     -72.89320000
C      -45.25970000     -32.07480000     -73.12390000
H      -48.22030000     -30.44860000     -72.57230000
C      -45.31810000     -31.37560000     -74.35590000
C      -44.01000000     -32.74470000     -72.89990000
C      -43.20060000     -32.57070000     -73.98750000
S      -46.72530000     -30.42180000     -74.56100000
S      -43.86000000     -31.62770000     -75.32910000
H      -42.06610000     -32.65080000     -74.09740000
