40
Properties=species:S:1:pos:R:3 #=T CELL(abcABC):=T 1.889726e+02=T 90.00000=T Traj:=T positionsangstrom=T Step:=T 0=T Bead:=T pbc="F F F"
C      -44.10880000     -37.22040000     -70.46190000
C      -43.39970000     -36.08030000     -70.19210000
C      -42.96720000     -35.29230000     -71.26000000
C      -43.31170000     -35.67800000     -72.56590000
C      -44.05440000     -36.87360000     -72.79700000
C      -44.50830000     -37.64070000     -71.68480000
H      -44.38500000     -37.89150000     -69.63110000
H      -42.35830000     -34.41650000     -71.10380000
H      -44.48240000     -37.14410000     -73.80420000
H      -45.07010000     -38.55180000     -71.80940000
C      -42.89760000     -34.81920000     -73.74530000
H      -42.68350000     -35.50720000     -74.58930000
H      -41.99950000     -34.28980000     -73.44470000
C      -43.20800000     -35.74480000     -68.63220000
H      -44.17970000     -36.10120000     -68.19770000
H      -42.36180000     -36.23100000     -68.24130000
S      -44.04530000     -33.54900000     -74.40580000
S      -43.16490000     -33.94530000     -68.39320000
C      -43.56910000     -31.95590000     -73.54850000
H      -42.53140000     -31.96080000     -73.30130000
H      -43.74610000     -31.12580000     -74.27040000
C      -44.89350000     -33.58300000     -68.86150000
H      -45.53790000     -33.81990000     -68.03430000
H      -45.26270000     -34.00790000     -69.83480000
C      -45.20170000     -31.98950000     -68.98220000
H      -45.16700000     -31.63080000     -67.89130000
H      -44.38230000     -31.45290000     -69.48310000
C      -44.34220000     -31.71970000     -72.26230000
H      -44.05900000     -30.64990000     -71.96180000
H      -43.95420000     -32.42190000     -71.54460000
C      -45.84730000     -31.81020000     -72.28000000
C      -46.63630000     -31.65430000     -73.41180000
C      -46.70540000     -31.65360000     -71.09020000
H      -46.31740000     -31.75310000     -74.41040000
C      -48.04980000     -31.53160000     -71.40890000
C      -46.55970000     -31.74480000     -69.64070000
C      -47.71580000     -31.62440000     -68.96730000
S      -48.33560000     -31.33820000     -73.11200000
S      -49.11610000     -31.48170000     -70.00250000
H      -47.82190000     -31.80790000     -67.92940000
