40
Properties=species:S:1:pos:R:3 #=T CELL(abcABC):=T 1.889726e+02=T 90.00000=T Traj:=T positionsangstrom=T Step:=T 0=T Bead:=T pbc="F F F"
C      -44.78160000     -37.89610000     -71.00010000
C      -45.22210000     -36.62800000     -70.48040000
C      -44.23230000     -35.67890000     -70.13320000
C      -42.90590000     -35.89090000     -70.54290000
C      -42.52020000     -37.08160000     -71.16270000
C      -43.48060000     -38.07850000     -71.38590000
H      -45.52030000     -38.75180000     -71.10520000
H      -44.53450000     -34.78910000     -69.59680000
H      -41.52280000     -37.20720000     -71.49960000
H      -43.14280000     -39.05770000     -71.62940000
C      -41.87550000     -34.81120000     -70.39270000
H      -40.91960000     -35.13350000     -69.91060000
H      -42.22670000     -34.06020000     -69.73650000
C      -46.67290000     -36.50050000     -70.29350000
H      -47.18100000     -35.95940000     -71.16200000
H      -47.10110000     -37.44820000     -70.17540000
S      -41.46620000     -33.94110000     -71.95230000
S      -47.12230000     -35.54410000     -68.72280000
C      -43.11360000     -33.14800000     -72.57330000
H      -42.85870000     -32.60840000     -73.51020000
H      -43.70920000     -34.10710000     -72.71740000
C      -47.70490000     -33.85270000     -69.38180000
H      -48.18780000     -33.31000000     -68.59310000
H      -48.52350000     -34.14340000     -70.02010000
C      -46.62760000     -33.07830000     -70.02330000
H      -45.82070000     -32.95560000     -69.30660000
H      -46.20720000     -33.69450000     -70.89180000
C      -43.72520000     -32.07330000     -71.56260000
H      -42.92450000     -31.40640000     -71.20130000
H      -44.16750000     -32.64050000     -70.72830000
C      -44.85290000     -31.22520000     -72.20770000
C      -44.59200000     -30.40270000     -73.30700000
C      -46.22250000     -31.30550000     -71.88990000
H      -43.68500000     -30.12520000     -73.88150000
C      -46.97930000     -30.36870000     -72.60940000
C      -47.04310000     -31.78650000     -70.77030000
C      -48.30810000     -31.20330000     -70.68910000
S      -46.05500000     -29.60080000     -73.85050000
S      -48.59130000     -30.08020000     -72.02560000
H      -49.10430000     -31.36840000     -70.05560000
