40
Properties=species:S:1:pos:R:3 #=T CELL(abcABC):=T 1.889726e+02=T 90.00000=T Traj:=T positionsangstrom=T Step:=T 0=T Bead:=T pbc="F F F"
C      -44.65430000     -37.95210000     -70.93920000
C      -45.10110000     -36.69170000     -70.44590000
C      -44.16640000     -35.67120000     -70.28230000
C      -42.83550000     -35.85030000     -70.73200000
C      -42.42250000     -37.09060000     -71.29290000
C      -43.35700000     -38.07370000     -71.45150000
H      -45.29790000     -38.83360000     -70.94470000
H      -44.42910000     -34.67050000     -69.88570000
H      -41.40890000     -37.27060000     -71.49260000
H      -43.13080000     -39.01310000     -71.93490000
C      -41.85430000     -34.71210000     -70.42150000
H      -40.84460000     -35.09060000     -70.27860000
H      -42.24860000     -34.16070000     -69.56410000
C      -46.54540000     -36.49810000     -69.96130000
H      -47.17810000     -36.13150000     -70.80010000
H      -46.95930000     -37.48870000     -69.86630000
S      -41.51640000     -33.59380000     -71.91720000
S      -47.03630000     -35.49580000     -68.53880000
C      -43.23450000     -33.18400000     -72.51970000
H      -43.22500000     -32.90130000     -73.53890000
H      -43.86150000     -34.05340000     -72.39210000
C      -47.60360000     -33.96370000     -69.30240000
H      -48.05090000     -33.33840000     -68.54240000
H      -48.37310000     -34.26290000     -70.06660000
C      -46.58670000     -33.14510000     -70.09490000
H      -45.92430000     -32.69530000     -69.31640000
H      -46.06670000     -33.84330000     -70.69840000
C      -43.73880000     -31.99800000     -71.70980000
H      -42.89260000     -31.31340000     -71.64670000
H      -44.06330000     -32.14130000     -70.68550000
C      -44.85650000     -31.27930000     -72.34890000
C      -44.66110000     -30.48760000     -73.46260000
C      -46.25130000     -31.26320000     -71.90550000
H      -43.66230000     -30.26550000     -73.87170000
C      -47.03670000     -30.23240000     -72.48260000
C      -47.09820000     -32.04320000     -70.96770000
C      -48.44190000     -31.70890000     -71.01630000
S      -46.12220000     -29.43880000     -73.72100000
S      -48.73460000     -30.30420000     -72.02340000
H      -49.09880000     -31.95200000     -70.25810000
