40
Properties=species:S:1:pos:R:3 #=T CELL(abcABC):=T 1.889726e+02=T 90.00000=T Traj:=T positionsangstrom=T Step:=T 0=T Bead:=T pbc="F F F"
C      -44.70010000     -37.90070000     -71.08140000
C      -45.02360000     -36.79960000     -70.31630000
C      -44.15070000     -35.69880000     -70.12490000
C      -42.81280000     -35.81580000     -70.62680000
C      -42.51240000     -36.96770000     -71.38420000
C      -43.40150000     -37.99100000     -71.53700000
H      -45.36850000     -38.63890000     -71.39640000
H      -44.51090000     -34.85800000     -69.47220000
H      -41.51330000     -37.04850000     -71.87680000
H      -43.16540000     -38.89210000     -72.15380000
C      -41.82600000     -34.70390000     -70.49060000
H      -40.85250000     -35.08110000     -70.29970000
H      -42.10540000     -34.05460000     -69.60410000
C      -46.48640000     -36.67790000     -69.84460000
H      -47.00500000     -36.28630000     -70.66960000
H      -46.96860000     -37.70390000     -69.49860000
S      -41.50320000     -33.62830000     -72.01690000
S      -46.64480000     -35.41530000     -68.42500000
C      -43.15590000     -33.11000000     -72.49770000
H      -43.11890000     -32.74670000     -73.56940000
H      -43.89850000     -33.92990000     -72.60490000
C      -47.54730000     -34.04480000     -69.38190000
H      -48.04230000     -33.34790000     -68.63860000
H      -48.36920000     -34.39770000     -69.91900000
C      -46.56630000     -33.27370000     -70.21440000
H      -45.84470000     -32.72150000     -69.59020000
H      -45.83430000     -33.86370000     -70.82650000
C      -43.74320000     -32.00310000     -71.61960000
H      -42.94810000     -31.30140000     -71.19110000
H      -44.19630000     -32.38480000     -70.68950000
C      -44.89550000     -31.18820000     -72.27270000
C      -44.78210000     -30.03700000     -73.04980000
C      -46.33040000     -31.31050000     -71.97220000
H      -43.85310000     -29.69350000     -73.46320000
C      -47.17480000     -30.42470000     -72.66200000
C      -47.15200000     -32.13290000     -71.02820000
C      -48.46970000     -31.73260000     -71.00640000
S      -46.23920000     -29.29990000     -73.63130000
S      -48.91050000     -30.51210000     -72.20880000
H      -49.28050000     -32.12510000     -70.42920000
