40
Properties=species:S:1:pos:R:3 #=T CELL(abcABC):=T 1.889726e+02=T 90.00000=T Traj:=T positionsangstrom=T Step:=T 0=T Bead:=T pbc="F F F"
C      -44.77370000     -37.42670000     -70.99270000
C      -44.62620000     -36.58270000     -69.86400000
C      -43.66410000     -35.56680000     -69.89670000
C      -42.78220000     -35.43330000     -71.02050000
C      -42.96750000     -36.30420000     -72.08210000
C      -43.92410000     -37.33580000     -72.07200000
H      -45.37030000     -38.31820000     -70.90770000
H      -43.71510000     -34.84960000     -69.01400000
H      -42.33820000     -36.19000000     -72.90680000
H      -44.16540000     -37.94860000     -72.95320000
C      -41.73570000     -34.33460000     -71.14320000
H      -40.77030000     -34.78480000     -71.16330000
H      -41.64370000     -33.60410000     -70.34650000
C      -45.62640000     -36.80360000     -68.66180000
H      -46.45810000     -37.40840000     -68.98780000
H      -45.04050000     -37.36300000     -67.85690000
S      -41.72800000     -33.41940000     -72.71870000
S      -46.34750000     -35.31240000     -68.00290000
C      -43.36870000     -32.67490000     -72.72900000
H      -43.41890000     -32.24110000     -73.68750000
H      -44.12490000     -33.52810000     -72.73940000
C      -47.15220000     -34.59780000     -69.51770000
H      -48.08650000     -34.19480000     -69.09750000
H      -47.51610000     -35.40430000     -70.06140000
C      -46.30060000     -33.55540000     -70.19850000
H      -45.95580000     -32.78490000     -69.52160000
H      -45.29750000     -33.83090000     -70.58180000
C      -43.72730000     -31.68020000     -71.59250000
H      -42.85380000     -31.09240000     -71.41190000
H      -44.00140000     -32.26420000     -70.70910000
C      -45.00630000     -30.88780000     -71.87140000
C      -45.14340000     -29.64140000     -72.39460000
C      -46.31150000     -31.56650000     -71.81020000
H      -44.29830000     -28.99280000     -72.47490000
C      -47.33030000     -30.74940000     -72.42500000
C      -46.98780000     -32.78250000     -71.27220000
C      -48.34950000     -32.78600000     -71.63050000
S      -46.75560000     -29.15610000     -72.98560000
S      -48.90840000     -31.40670000     -72.55500000
H      -49.13230000     -33.45520000     -71.33800000
