40
Properties=species:S:1:pos:R:3 #=T CELL(abcABC):=T 1.889726e+02=T 90.00000=T Traj:=T positionsangstrom=T Step:=T 0=T Bead:=T pbc="F F F"
C      -44.83710000     -37.26060000     -70.91470000
C      -44.39160000     -36.62000000     -69.76720000
C      -43.32980000     -35.72810000     -69.85480000
C      -42.68130000     -35.45600000     -71.08730000
C      -43.14950000     -36.14370000     -72.20500000
C      -44.14110000     -37.08290000     -72.12990000
H      -45.74050000     -37.86410000     -70.90920000
H      -42.93390000     -35.13420000     -69.00200000
H      -42.78420000     -35.94860000     -73.22010000
H      -44.52770000     -37.61080000     -73.00380000
C      -41.73230000     -34.35190000     -71.03970000
H      -40.69390000     -34.70890000     -70.89860000
H      -42.02120000     -33.72530000     -70.18830000
C      -45.11420000     -36.78130000     -68.47110000
H      -45.73170000     -37.58110000     -68.42760000
H      -44.45080000     -36.87630000     -67.59500000
S      -41.70210000     -33.22960000     -72.61690000
S      -46.14420000     -35.27020000     -68.09240000
C      -43.41220000     -32.46040000     -72.81860000
H      -43.38610000     -31.68000000     -73.61430000
H      -44.14610000     -33.17350000     -73.14380000
C      -47.11520000     -34.73690000     -69.54490000
H      -47.94920000     -34.12450000     -69.14220000
H      -47.37810000     -35.55360000     -70.17560000
C      -46.23010000     -33.79290000     -70.47000000
H      -45.61190000     -33.24760000     -69.75710000
H      -45.61830000     -34.45220000     -71.08960000
C      -43.83650000     -31.68250000     -71.57040000
H      -43.05860000     -30.99830000     -71.27830000
H      -44.11770000     -32.43630000     -70.76270000
C      -45.20350000     -30.89780000     -71.90690000
C      -45.17800000     -29.62390000     -72.36240000
C      -46.49900000     -31.56180000     -71.92440000
H      -44.26830000     -29.00850000     -72.46830000
C      -47.51260000     -30.77540000     -72.48110000
C      -47.03460000     -32.82570000     -71.36380000
C      -48.39390000     -32.99990000     -71.57690000
S      -46.82260000     -29.15290000     -72.91650000
S      -49.08800000     -31.62780000     -72.51600000
H      -49.03120000     -33.72480000     -71.16310000
