40
Properties=species:S:1:pos:R:3 #=T CELL(abcABC):=T 1.889726e+02=T 90.00000=T Traj:=T positionsangstrom=T Step:=T 0=T Bead:=T pbc="F F F"
C      -49.32800000     -33.17790000     -70.40160000
C      -48.48750000     -33.20680000     -71.53740000
C      -47.67100000     -32.08340000     -71.80830000
C      -47.67330000     -30.91700000     -71.08250000
C      -48.57480000     -30.95270000     -70.02660000
C      -49.40960000     -31.98830000     -69.64420000
H      -49.87650000     -34.00470000     -70.09760000
H      -46.98740000     -31.93910000     -72.63060000
H      -48.67310000     -29.98180000     -69.59520000
H      -50.04870000     -32.01200000     -68.73750000
C      -46.80670000     -29.78360000     -71.38770000
H      -47.37030000     -28.84350000     -71.48740000
H      -46.21900000     -30.09930000     -72.31090000
C      -48.42450000     -34.40540000     -72.45380000
H      -49.17580000     -35.06880000     -72.10100000
H      -48.67380000     -34.09600000     -73.44880000
S      -45.50220000     -29.44100000     -70.05020000
S      -46.89070000     -35.33880000     -72.63750000
C      -44.85500000     -31.15120000     -69.67810000
H      -44.05610000     -31.00990000     -68.94980000
H      -45.66440000     -31.72410000     -69.13940000
C      -46.07030000     -34.55610000     -74.08880000
H      -46.72020000     -33.76920000     -74.49420000
H      -45.89780000     -35.31000000     -74.88050000
C      -44.77560000     -33.76460000     -73.72620000
H      -44.30320000     -33.40240000     -74.60550000
H      -45.00250000     -32.84310000     -73.15460000
C      -44.33120000     -31.94950000     -70.92010000
H      -43.71200000     -31.32320000     -71.56510000
H      -45.18180000     -32.11630000     -71.55730000
C      -43.44420000     -33.14640000     -70.65280000
C      -42.64920000     -33.29130000     -69.54220000
C      -43.36570000     -34.27600000     -71.51880000
H      -42.69700000     -32.76890000     -68.59370000
C      -42.60840000     -35.29290000     -70.97350000
C      -43.89810000     -34.66900000     -72.83880000
C      -43.51760000     -35.89710000     -73.20880000
S      -41.93460000     -34.91460000     -69.46780000
S      -42.44340000     -36.66050000     -71.99260000
H      -43.61520000     -36.37410000     -74.24200000
