40
Properties=species:S:1:pos:R:3 #=T CELL(abcABC):=T 1.889726e+02=T 90.00000=T Traj:=T positionsangstrom=T Step:=T 0=T Bead:=T pbc="F F F"
C      -49.09120000     -33.19410000     -70.22300000
C      -48.56340000     -33.00750000     -71.47700000
C      -48.00020000     -31.80320000     -71.80440000
C      -47.81190000     -30.79130000     -70.84800000
C      -48.21060000     -31.11400000     -69.53110000
C      -48.87600000     -32.27300000     -69.18950000
H      -49.57130000     -34.20760000     -69.95040000
H      -47.65130000     -31.81760000     -72.81800000
H      -48.05350000     -30.33370000     -68.71310000
H      -49.19250000     -32.42190000     -68.16110000
C      -47.04150000     -29.53410000     -71.27280000
H      -47.51210000     -28.57510000     -71.03150000
H      -46.76880000     -29.69350000     -72.31440000
C      -48.53340000     -34.17040000     -72.37000000
H      -49.17490000     -35.01010000     -72.01900000
H      -48.89270000     -33.88920000     -73.37290000
S      -45.26720000     -29.41970000     -70.55160000
S      -46.72950000     -34.90000000     -72.44930000
C      -44.80260000     -31.13410000     -70.16270000
H      -44.10340000     -30.97590000     -69.39720000
H      -45.79720000     -31.60420000     -69.84510000
C      -45.93590000     -34.45170000     -74.13580000
H      -46.61880000     -33.72870000     -74.63080000
H      -46.10770000     -35.41590000     -74.69210000
C      -44.50410000     -34.07200000     -73.97410000
H      -44.16560000     -34.15340000     -74.97180000
H      -44.51040000     -33.05300000     -73.78120000
C      -44.29660000     -31.95740000     -71.31530000
H      -43.64390000     -31.39510000     -72.00150000
H      -45.12160000     -32.23230000     -72.03370000
C      -43.68370000     -33.23830000     -70.84090000
C      -43.14320000     -33.43170000     -69.55890000
C      -43.44230000     -34.38430000     -71.63960000
H      -42.90820000     -32.71940000     -68.77980000
C      -42.82370000     -35.41150000     -70.88340000
C      -43.69080000     -34.83330000     -72.93930000
C      -43.34360000     -36.17640000     -73.20790000
S      -42.30210000     -34.95580000     -69.33490000
S      -42.52240000     -36.86580000     -71.82560000
H      -43.62250000     -36.66710000     -74.04130000
