40
Properties=species:S:1:pos:R:3 #=T CELL(abcABC):=T 1.889726e+02=T 90.00000=T Traj:=T positionsangstrom=T Step:=T 0=T Bead:=T pbc="F F F"
C      -42.72120000     -36.78380000     -72.77550000
C      -43.32350000     -36.49840000     -71.55110000
C      -42.89700000     -35.45590000     -70.64380000
C      -41.93310000     -34.60800000     -71.13700000
C      -41.29750000     -34.86970000     -72.34600000
C      -41.58780000     -36.01270000     -73.12690000
H      -43.08300000     -37.59820000     -73.45120000
H      -43.30170000     -35.36590000     -69.63470000
H      -40.57280000     -34.08860000     -72.62980000
H      -41.02690000     -36.14170000     -74.07080000
C      -41.55570000     -33.40710000     -70.28510000
H      -40.46410000     -33.36310000     -70.02990000
H      -42.00510000     -33.42970000     -69.28390000
C      -44.45250000     -37.34160000     -71.05200000
H      -45.01060000     -37.76540000     -71.84880000
H      -43.93180000     -38.23440000     -70.50680000
S      -42.00460000     -31.82690000     -71.15360000
S      -45.52110000     -36.61150000     -69.79360000
C      -43.75480000     -31.92480000     -71.67280000
H      -43.78790000     -31.17700000     -72.33280000
H      -44.01820000     -32.87900000     -72.12750000
C      -46.03550000     -35.00900000     -70.66480000
H      -46.13570000     -35.30690000     -71.69240000
H      -45.19050000     -34.29050000     -70.56100000
C      -47.31070000     -34.49060000     -70.11180000
H      -48.10910000     -35.28980000     -70.10720000
H      -47.17190000     -34.25650000     -69.06800000
C      -44.75560000     -31.71660000     -70.46780000
H      -44.40310000     -30.93720000     -69.76940000
H      -44.79170000     -32.57880000     -69.79640000
C      -46.11390000     -31.24520000     -71.03130000
C      -46.23160000     -29.90940000     -71.46760000
C      -47.29040000     -32.03160000     -71.25580000
H      -45.44460000     -29.19710000     -71.29550000
C      -48.24700000     -31.18850000     -71.87080000
C      -47.92210000     -33.29370000     -70.88290000
C      -49.20420000     -33.37580000     -71.36780000
S      -47.80300000     -29.56850000     -72.10010000
S      -49.77050000     -31.93690000     -72.15310000
H      -49.92910000     -34.13930000     -71.10320000
