40
Properties=species:S:1:pos:R:3 #=T CELL(abcABC):=T 1.889726e+02=T 90.00000=T Traj:=T positionsangstrom=T Step:=T 0=T Bead:=T pbc="F F F"
C      -42.46040000     -36.49710000     -73.06120000
C      -43.06810000     -36.34970000     -71.80260000
C      -42.69320000     -35.22370000     -71.02830000
C      -41.73510000     -34.27110000     -71.42490000
C      -41.26550000     -34.39310000     -72.75490000
C      -41.69820000     -35.43500000     -73.53500000
H      -42.82540000     -37.21050000     -73.80070000
H      -43.09820000     -35.17180000     -70.00970000
H      -40.66580000     -33.62930000     -73.28340000
H      -41.50790000     -35.40030000     -74.60890000
C      -41.24070000     -33.21940000     -70.43920000
H      -40.16880000     -32.94060000     -70.49020000
H      -41.53170000     -33.51740000     -69.49650000
C      -44.03570000     -37.35570000     -71.26220000
H      -44.34990000     -38.02410000     -72.05860000
H      -43.43650000     -37.93880000     -70.48890000
S      -42.24960000     -31.50490000     -70.51050000
S      -45.50540000     -36.80790000     -70.29500000
C      -43.90930000     -32.14590000     -70.94510000
H      -44.19740000     -31.81260000     -71.95570000
H      -43.82700000     -33.14230000     -70.92570000
C      -46.54820000     -35.69020000     -71.30240000
H      -47.35140000     -36.13540000     -71.84260000
H      -45.88060000     -35.23310000     -72.08560000
C      -46.91000000     -34.56200000     -70.29030000
H      -47.56220000     -34.95740000     -69.48660000
H      -46.06240000     -34.14580000     -69.83940000
C      -44.99330000     -31.69980000     -69.95770000
H      -44.61160000     -31.05350000     -69.18600000
H      -45.19380000     -32.56640000     -69.34010000
C      -46.21200000     -31.19760000     -70.69980000
C      -46.43610000     -29.92060000     -71.11060000
C      -47.37110000     -32.03740000     -71.08300000
H      -45.76530000     -29.08560000     -70.95440000
C      -48.36430000     -31.31630000     -71.69400000
C      -47.74040000     -33.44400000     -70.93410000
C      -48.96380000     -33.70280000     -71.42760000
S      -47.96830000     -29.64520000     -71.92750000
S      -49.76910000     -32.23200000     -72.01660000
H      -49.61600000     -34.59570000     -71.38300000
