40
Properties=species:S:1:pos:R:3 #=T CELL(abcABC):=T 1.889726e+02=T 90.00000=T Traj:=T positionsangstrom=T Step:=T 0=T Bead:=T pbc="F F F"
C      -42.48490000     -36.26460000     -73.08250000
C      -43.13210000     -36.19110000     -71.82650000
C      -42.71670000     -35.13110000     -70.96680000
C      -41.76600000     -34.19670000     -71.45390000
C      -41.30970000     -34.23050000     -72.76550000
C      -41.61140000     -35.30260000     -73.59940000
H      -42.62030000     -37.16720000     -73.72160000
H      -43.19070000     -34.98710000     -69.97280000
H      -40.62780000     -33.46750000     -73.15850000
H      -41.09250000     -35.38540000     -74.51030000
C      -41.30360000     -33.01640000     -70.54750000
H      -40.45780000     -32.52140000     -71.08160000
H      -40.98550000     -33.45770000     -69.53870000
C      -43.90020000     -37.40010000     -71.49070000
H      -44.29770000     -37.89510000     -72.35480000
H      -43.23580000     -38.13720000     -71.05470000
S      -42.32450000     -31.52400000     -70.39380000
S      -45.38180000     -37.08810000     -70.38360000
C      -44.05880000     -32.08030000     -70.86030000
H      -44.22830000     -31.82210000     -71.96480000
H      -44.02700000     -33.19020000     -70.96910000
C      -46.21290000     -35.75780000     -71.38710000
H      -47.16770000     -36.22960000     -71.84710000
H      -45.55540000     -35.49930000     -72.14830000
C      -46.66660000     -34.54340000     -70.47730000
H      -47.16170000     -35.00050000     -69.59180000
H      -45.74670000     -34.01700000     -70.17290000
C      -45.07420000     -31.49490000     -69.89500000
H      -44.64520000     -30.51940000     -69.49820000
H      -45.30340000     -32.20410000     -69.08490000
C      -46.37470000     -31.15680000     -70.55230000
C      -46.58180000     -29.86610000     -70.97250000
C      -47.40960000     -32.11130000     -70.96570000
H      -45.88760000     -29.10360000     -70.82050000
C      -48.42810000     -31.35950000     -71.55310000
C      -47.64640000     -33.55120000     -71.05630000
C      -48.85060000     -33.84440000     -71.57490000
S      -48.10920000     -29.61440000     -71.74990000
S      -49.78370000     -32.36140000     -72.05800000
H      -49.42570000     -34.76770000     -71.70720000
