40
Properties=species:S:1:pos:R:3 #=T CELL(abcABC):=T 1.889726e+02=T 90.00000=T Traj:=T positionsangstrom=T Step:=T 0=T Bead:=T pbc="F F F"
C      -42.67560000     -35.96590000     -73.32900000
C      -42.89790000     -36.30110000     -71.96980000
C      -42.51030000     -35.35490000     -71.01100000
C      -41.87210000     -34.12100000     -71.33130000
C      -41.62150000     -33.86770000     -72.67640000
C      -42.03200000     -34.75710000     -73.64010000
H      -43.13510000     -36.52820000     -74.11990000
H      -42.52230000     -35.64920000     -69.95310000
H      -41.13300000     -32.93340000     -72.92500000
H      -41.82430000     -34.62540000     -74.74950000
C      -41.37560000     -33.21920000     -70.35830000
H      -40.36180000     -32.91280000     -70.64980000
H      -41.53760000     -33.64000000     -69.35440000
C      -43.80700000     -37.46400000     -71.68170000
H      -44.14400000     -37.86760000     -72.61290000
H      -43.31350000     -38.24270000     -71.10180000
S      -42.29390000     -31.43610000     -70.29580000
S      -45.21650000     -37.07510000     -70.58300000
C      -43.94550000     -31.84950000     -70.89200000
H      -44.13730000     -31.57090000     -71.91780000
H      -44.04390000     -33.00440000     -70.86290000
C      -45.71360000     -35.51520000     -71.45100000
H      -46.38290000     -35.78980000     -72.24170000
H      -44.84850000     -35.02510000     -72.01180000
C      -46.41520000     -34.49180000     -70.47120000
H      -46.82460000     -35.14200000     -69.68420000
H      -45.62530000     -33.95070000     -69.91090000
C      -45.04690000     -31.29200000     -69.95500000
H      -44.75770000     -30.35120000     -69.50390000
H      -45.13000000     -31.96830000     -69.03180000
C      -46.44330000     -31.12440000     -70.60120000
C      -47.01620000     -29.85630000     -70.73700000
C      -47.41330000     -32.10040000     -70.89080000
H      -46.64350000     -28.93770000     -70.35270000
C      -48.61800000     -31.57100000     -71.40340000
C      -47.43880000     -33.54750000     -71.06450000
C      -48.52780000     -34.03140000     -71.72960000
S      -48.60370000     -29.83650000     -71.43610000
S      -49.56370000     -32.71000000     -72.21330000
H      -48.66630000     -35.02000000     -72.04540000
