40
Properties=species:S:1:pos:R:3 #=T CELL(abcABC):=T 1.889726e+02=T 90.00000=T Traj:=T positionsangstrom=T Step:=T 0=T Bead:=T pbc="F F F"
C      -42.67660000     -35.34490000     -73.54810000
C      -43.09480000     -35.62580000     -72.22040000
C      -42.78510000     -34.82100000     -71.12430000
C      -42.08440000     -33.61560000     -71.30070000
C      -41.53730000     -33.42710000     -72.59350000
C      -41.79690000     -34.23310000     -73.70360000
H      -42.92260000     -35.96950000     -74.38260000
H      -43.20250000     -35.16920000     -70.18170000
H      -40.82960000     -32.62250000     -72.71960000
H      -41.26780000     -34.01870000     -74.65420000
C      -41.77260000     -32.77160000     -70.09020000
H      -40.69150000     -32.56990000     -69.93650000
H      -42.03150000     -33.43760000     -69.23810000
C      -43.58140000     -37.09890000     -72.08070000
H      -44.20220000     -37.41420000     -72.92430000
H      -42.76060000     -37.81790000     -71.92210000
S      -42.40940000     -31.06720000     -70.17170000
S      -44.88260000     -37.33580000     -70.71010000
C      -44.13980000     -31.14160000     -70.81270000
H      -44.34080000     -30.13060000     -70.99050000
H      -44.10800000     -31.68150000     -71.82000000
C      -46.28870000     -36.24700000     -71.36700000
H      -47.24430000     -36.72570000     -71.12960000
H      -46.15810000     -36.29430000     -72.49800000
C      -46.15660000     -34.83530000     -70.85640000
H      -46.07760000     -34.90360000     -69.78870000
H      -45.28000000     -34.34100000     -71.26380000
C      -45.09720000     -31.74890000     -69.66450000
H      -44.94550000     -31.15250000     -68.76890000
H      -44.88060000     -32.82470000     -69.47180000
C      -46.52270000     -31.56960000     -70.16420000
C      -47.03670000     -30.24780000     -70.13380000
C      -47.32760000     -32.46980000     -71.00210000
H      -46.51890000     -29.45010000     -69.70690000
C      -48.42970000     -31.83980000     -71.60370000
C      -47.34790000     -33.92330000     -71.19230000
C      -48.44380000     -34.33730000     -71.88480000
S      -48.55620000     -30.15350000     -71.12080000
S      -49.51980000     -32.96770000     -72.44370000
H      -48.49640000     -35.28530000     -72.45780000
