40
Properties=species:S:1:pos:R:3 #=T CELL(abcABC):=T 1.889726e+02=T 90.00000=T Traj:=T positionsangstrom=T Step:=T 0=T Bead:=T pbc="F F F"
C      -42.57560000     -35.25390000     -73.49830000
C      -42.95320000     -35.73300000     -72.22170000
C      -42.65240000     -34.96450000     -71.08750000
C      -42.15450000     -33.67140000     -71.13570000
C      -41.90780000     -33.12440000     -72.40830000
C      -42.08730000     -33.93950000     -73.54800000
H      -42.73090000     -35.78270000     -74.41270000
H      -42.77370000     -35.33360000     -70.04410000
H      -41.49520000     -32.11290000     -72.45460000
H      -41.75710000     -33.33460000     -74.47670000
C      -41.69640000     -32.87260000     -69.96320000
H      -40.61870000     -32.78230000     -69.97150000
H      -41.94010000     -33.22870000     -68.97410000
C      -43.65210000     -37.07010000     -72.06990000
H      -44.06890000     -37.31260000     -73.04590000
H      -42.83550000     -37.83710000     -71.95560000
S      -42.32140000     -31.10790000     -69.94180000
S      -44.79880000     -37.21210000     -70.78220000
C      -44.01520000     -31.24330000     -70.68700000
H      -44.20790000     -30.20680000     -70.97070000
H      -43.92640000     -31.90340000     -71.56480000
C      -46.25270000     -36.11510000     -71.38620000
H      -46.80850000     -35.95810000     -70.46930000
H      -46.78020000     -36.77400000     -72.10110000
C      -45.82150000     -34.66960000     -71.81130000
H      -45.06070000     -34.19040000     -71.13590000
H      -45.35610000     -34.67600000     -72.80690000
C      -45.12860000     -31.74900000     -69.75610000
H      -45.15080000     -31.33180000     -68.72770000
H      -45.00820000     -32.82720000     -69.60830000
C      -46.51410000     -31.55330000     -70.34120000
C      -47.20940000     -30.37890000     -70.09230000
C      -47.26020000     -32.47670000     -71.15980000
H      -46.79810000     -29.45170000     -69.59370000
C      -48.57660000     -31.97920000     -71.42290000
C      -47.07780000     -33.76180000     -71.89600000
C      -48.25410000     -34.22110000     -72.44020000
S      -48.82190000     -30.36170000     -70.72680000
S      -49.56220000     -33.08970000     -72.35320000
H      -48.24100000     -35.10380000     -73.11270000
