40
Properties=species:S:1:pos:R:3 #=T CELL(abcABC):=T 1.889726e+02=T 90.00000=T Traj:=T positionsangstrom=T Step:=T 0=T Bead:=T pbc="F F F"
C      -42.55900000     -35.27860000     -73.51720000
C      -42.91380000     -35.77340000     -72.27150000
C      -42.68760000     -34.95940000     -71.10670000
C      -42.13410000     -33.69910000     -71.26510000
C      -41.74450000     -33.20730000     -72.52880000
C      -41.89530000     -34.05760000     -73.68860000
H      -42.70110000     -35.92690000     -74.36960000
H      -43.00730000     -35.22800000     -70.06140000
H      -41.38870000     -32.15390000     -72.61770000
H      -41.62950000     -33.62190000     -74.64620000
C      -41.90020000     -32.93900000     -69.94820000
H      -40.79760000     -32.86990000     -69.83710000
H      -42.43190000     -33.47910000     -69.16340000
C      -43.46520000     -37.18830000     -72.10190000
H      -43.74780000     -37.68280000     -73.03350000
H      -42.67650000     -37.69030000     -71.57580000
S      -42.37120000     -31.14310000     -69.90960000
S      -44.88360000     -37.20660000     -70.70270000
C      -44.02800000     -31.19130000     -70.76270000
H      -44.37240000     -30.17660000     -70.99570000
H      -44.00290000     -31.67010000     -71.71690000
C      -46.26840000     -36.16480000     -71.35430000
H      -47.06510000     -36.20730000     -70.58440000
H      -46.77380000     -36.50860000     -72.24410000
C      -45.97280000     -34.68530000     -71.54520000
H      -45.38260000     -34.40560000     -70.75640000
H      -45.37760000     -34.60830000     -72.44380000
C      -45.11460000     -31.84250000     -69.74220000
H      -44.91420000     -31.39780000     -68.79310000
H      -44.80590000     -32.89950000     -69.55300000
C      -46.53600000     -31.66810000     -70.21710000
C      -47.14910000     -30.45630000     -69.97220000
C      -47.33050000     -32.55350000     -71.05410000
H      -46.83540000     -29.58430000     -69.37030000
C      -48.51090000     -31.89010000     -71.46560000
C      -47.18190000     -33.81070000     -71.76590000
C      -48.25600000     -34.10930000     -72.56420000
S      -48.76740000     -30.33570000     -70.69580000
S      -49.51010000     -32.79160000     -72.53660000
H      -48.44620000     -35.09770000     -73.01360000
