40
Properties=species:S:1:pos:R:3 #=T CELL(abcABC):=T 1.889726e+02=T 90.00000=T Traj:=T positionsangstrom=T Step:=T 0=T Bead:=T pbc="F F F"
C      -42.53940000     -35.29720000     -73.39490000
C      -42.92290000     -35.77550000     -72.14730000
C      -42.64890000     -34.98320000     -71.02820000
C      -41.99090000     -33.75820000     -71.22450000
C      -41.72910000     -33.25320000     -72.47780000
C      -41.95270000     -34.09980000     -73.60180000
H      -42.74700000     -35.97350000     -74.28810000
H      -42.80880000     -35.34570000     -70.06480000
H      -41.19960000     -32.25250000     -72.55240000
H      -41.71630000     -33.86690000     -74.59110000
C      -41.78960000     -32.93570000     -69.98790000
H      -40.77420000     -32.81230000     -69.68830000
H      -42.20340000     -33.53070000     -69.15930000
C      -43.69880000     -37.11620000     -72.06540000
H      -44.26430000     -37.39030000     -73.04080000
H      -43.11530000     -38.02990000     -71.81600000
S      -42.39850000     -31.21400000     -70.04950000
S      -45.00110000     -37.17380000     -70.76020000
C      -44.19080000     -31.25750000     -70.55430000
H      -44.39450000     -30.16690000     -70.66970000
H      -44.18950000     -31.73020000     -71.55420000
C      -46.33120000     -36.15620000     -71.55160000
H      -47.16890000     -36.61040000     -71.04560000
H      -46.49670000     -36.32940000     -72.63930000
C      -46.07270000     -34.73470000     -71.29870000
H      -45.82640000     -34.47110000     -70.29620000
H      -45.10640000     -34.40340000     -71.82390000
C      -45.13220000     -31.99470000     -69.59050000
H      -45.10600000     -31.54050000     -68.57650000
H      -44.92280000     -33.07830000     -69.55830000
C      -46.58370000     -31.70860000     -70.07480000
C      -47.16730000     -30.47170000     -69.85890000
C      -47.26220000     -32.46530000     -71.11740000
H      -46.79590000     -29.75030000     -69.12650000
C      -48.35610000     -31.77930000     -71.60910000
C      -47.16720000     -33.78510000     -71.72540000
C      -48.15840000     -34.00960000     -72.61190000
S      -48.71940000     -30.28190000     -70.75440000
S      -49.36850000     -32.73640000     -72.67160000
H      -48.39710000     -34.90120000     -73.18350000
