40
Properties=species:S:1:pos:R:3 #=T CELL(abcABC):=T 1.889726e+02=T 90.00000=T Traj:=T positionsangstrom=T Step:=T 0=T Bead:=T pbc="F F F"
C      -42.65590000     -35.34990000     -73.31910000
C      -42.97650000     -35.82230000     -72.06830000
C      -42.62030000     -35.01090000     -70.98160000
C      -42.06030000     -33.71000000     -71.13990000
C      -41.63970000     -33.37940000     -72.45000000
C      -42.05110000     -34.11220000     -73.52250000
H      -43.01660000     -35.79360000     -74.27650000
H      -43.02290000     -35.38970000     -70.06210000
H      -41.24100000     -32.38220000     -72.53600000
H      -41.89310000     -33.83180000     -74.52700000
C      -41.65300000     -32.88170000     -69.98160000
H      -40.59110000     -32.64830000     -69.98470000
H      -41.99950000     -33.31050000     -68.98840000
C      -43.51730000     -37.21380000     -71.87950000
H      -43.54180000     -37.65880000     -72.81470000
H      -42.68900000     -37.77740000     -71.39120000
S      -42.43930000     -31.12710000     -69.98690000
S      -45.06240000     -37.36390000     -70.91250000
C      -44.14140000     -31.48030000     -70.67520000
H      -44.54080000     -30.67160000     -71.21530000
H      -44.10120000     -32.39880000     -71.31990000
C      -46.21670000     -36.16950000     -71.78110000
H      -47.13020000     -36.55800000     -71.41970000
H      -46.06520000     -36.22390000     -72.89270000
C      -46.09800000     -34.72120000     -71.26490000
H      -46.00450000     -34.79010000     -70.15500000
H      -45.12790000     -34.44810000     -71.62830000
C      -45.14450000     -31.86720000     -69.58300000
H      -44.98110000     -31.17020000     -68.74130000
H      -44.87420000     -32.84040000     -69.28860000
C      -46.61820000     -31.62470000     -70.05510000
C      -47.30550000     -30.48790000     -69.74430000
C      -47.36130000     -32.38610000     -71.09440000
H      -47.01810000     -29.77810000     -69.04130000
C      -48.48230000     -31.73480000     -71.54560000
C      -47.17590000     -33.73830000     -71.64640000
C      -48.08420000     -33.99870000     -72.60770000
S      -48.73570000     -30.18430000     -70.71030000
S      -49.24780000     -32.68210000     -72.84600000
H      -48.17710000     -34.78620000     -73.30750000
