40
Properties=species:S:1:pos:R:3 #=T CELL(abcABC):=T 1.889726e+02=T 90.00000=T Traj:=T positionsangstrom=T Step:=T 0=T Bead:=T pbc="F F F"
C      -42.09370000     -35.35490000     -72.89820000
C      -42.74160000     -35.65110000     -71.71120000
C      -42.77970000     -34.70420000     -70.63340000
C      -42.13900000     -33.49760000     -70.77960000
C      -41.52740000     -33.14960000     -71.99590000
C      -41.45180000     -34.13570000     -72.99120000
H      -42.07230000     -36.14030000     -73.75070000
H      -43.29940000     -34.88570000     -69.73300000
H      -41.08780000     -32.13960000     -72.16290000
H      -41.00740000     -33.98020000     -73.97330000
C      -42.02890000     -32.50670000     -69.56880000
H      -41.00070000     -32.37770000     -69.11250000
H      -42.67350000     -32.92460000     -68.82150000
C      -43.43110000     -36.97980000     -71.74090000
H      -43.66510000     -37.17020000     -72.68790000
H      -42.81050000     -37.80300000     -71.37450000
S      -42.55140000     -30.75610000     -69.92510000
S      -44.89110000     -37.34710000     -70.62080000
C      -44.25400000     -30.70280000     -70.75690000
H      -44.57710000     -29.70390000     -70.48740000
H      -44.22760000     -30.83720000     -71.84070000
C      -46.27920000     -36.34220000     -71.41390000
H      -47.22960000     -36.60600000     -70.87060000
H      -46.44230000     -36.76430000     -72.42050000
C      -45.98620000     -34.90310000     -71.42080000
H      -45.73260000     -34.63290000     -70.41490000
H      -45.07040000     -34.63220000     -72.00900000
C      -45.16130000     -31.76170000     -70.20270000
H      -45.11290000     -31.79080000     -69.10690000
H      -44.82660000     -32.76950000     -70.36070000
C      -46.58790000     -31.59990000     -70.67670000
C      -47.29180000     -30.39590000     -70.50230000
C      -47.39310000     -32.61480000     -71.34090000
H      -46.96610000     -29.45200000     -70.09020000
C      -48.63340000     -32.07070000     -71.78280000
C      -47.14270000     -33.95930000     -71.87660000
C      -48.24280000     -34.47270000     -72.58350000
S      -48.76060000     -30.41850000     -71.39360000
S      -49.51390000     -33.23870000     -72.73830000
H      -48.42810000     -35.58630000     -72.83590000
