40
Properties=species:S:1:pos:R:3 #=T CELL(abcABC):=T 1.889726e+02=T 90.00000=T Traj:=T positionsangstrom=T Step:=T 0=T Bead:=T pbc="F F F"
C      -42.03740000     -35.14610000     -73.01200000
C      -42.83970000     -35.44240000     -71.86650000
C      -42.87640000     -34.48390000     -70.81940000
C      -42.08250000     -33.34560000     -70.86790000
C      -41.19160000     -33.14890000     -71.90900000
C      -41.14510000     -34.12340000     -72.97190000
H      -42.04810000     -35.72930000     -73.86960000
H      -43.46030000     -34.76100000     -69.91720000
H      -40.50680000     -32.34930000     -71.77700000
H      -40.47360000     -33.92960000     -73.80290000
C      -42.03770000     -32.48330000     -69.55990000
H      -40.97770000     -32.41890000     -69.32630000
H      -42.59890000     -32.94530000     -68.66310000
C      -43.53200000     -36.85210000     -71.73910000
H      -44.02840000     -37.04220000     -72.83550000
H      -42.79990000     -37.71550000     -71.63860000
S      -42.65120000     -30.67970000     -69.72890000
S      -44.76530000     -37.17870000     -70.43760000
C      -44.17930000     -30.88220000     -70.75600000
H      -44.56380000     -29.83450000     -70.84380000
H      -43.94520000     -31.20690000     -71.79630000
C      -46.32090000     -36.46630000     -71.16710000
H      -47.19210000     -36.75570000     -70.58080000
H      -46.33730000     -36.95670000     -72.15140000
C      -46.21970000     -34.96120000     -71.17540000
H      -46.08010000     -34.72740000     -70.05900000
H      -45.24460000     -34.73520000     -71.66700000
C      -45.27490000     -31.79220000     -70.15880000
H      -45.56790000     -31.45170000     -69.13330000
H      -44.87910000     -32.84510000     -70.18920000
C      -46.58830000     -31.72640000     -70.83250000
C      -47.17420000     -30.48350000     -70.75080000
C      -47.38400000     -32.70440000     -71.51960000
H      -46.75110000     -29.60210000     -70.28250000
C      -48.52260000     -32.12130000     -72.07540000
C      -47.29770000     -34.13000000     -71.74690000
C      -48.45400000     -34.60450000     -72.37240000
S      -48.80020000     -30.52050000     -71.48000000
S      -49.51010000     -33.33390000     -72.89600000
H      -48.55260000     -35.57670000     -72.76830000
