40
Properties=species:S:1:pos:R:3 #=T CELL(abcABC):=T 1.889726e+02=T 90.00000=T Traj:=T positionsangstrom=T Step:=T 0=T Bead:=T pbc="F F F"
C      -43.37440000     -37.01320000     -70.16780000
C      -42.69870000     -35.82640000     -70.26980000
C      -42.64420000     -35.11630000     -71.56440000
C      -43.24030000     -35.67020000     -72.72420000
C      -43.92440000     -36.86730000     -72.52070000
C      -44.05130000     -37.50560000     -71.28200000
H      -43.43550000     -37.43060000     -69.13680000
H      -42.04780000     -34.24160000     -71.64710000
H      -44.50280000     -37.34070000     -73.28650000
H      -44.65520000     -38.33780000     -71.28960000
C      -43.23380000     -35.05200000     -74.15520000
H      -43.43460000     -35.89130000     -74.82200000
H      -42.24510000     -34.63520000     -74.52280000
C      -42.12090000     -35.16220000     -69.08820000
H      -41.98630000     -35.77910000     -68.24000000
H      -41.14930000     -34.58070000     -69.31440000
S      -44.51490000     -33.77330000     -74.32070000
S      -43.14110000     -33.66870000     -68.56160000
C      -43.81090000     -32.31760000     -73.45420000
H      -42.75400000     -32.49660000     -73.28330000
H      -43.82330000     -31.40890000     -74.07350000
C      -44.89880000     -33.87210000     -69.11480000
H      -45.39310000     -34.59750000     -68.44450000
H      -44.78250000     -34.25940000     -70.06190000
C      -45.46050000     -32.48190000     -68.96930000
H      -45.69940000     -32.35190000     -67.90900000
H      -44.77240000     -31.69910000     -69.31390000
C      -44.49950000     -31.92430000     -72.10720000
H      -43.85190000     -31.02350000     -71.78580000
H      -44.27190000     -32.81770000     -71.45980000
C      -45.93240000     -31.60150000     -72.13000000
C      -46.60170000     -31.22790000     -73.25700000
C      -46.86320000     -31.69560000     -71.00430000
H      -46.30450000     -31.28740000     -74.27620000
C      -48.19380000     -31.35360000     -71.30860000
C      -46.81210000     -32.31870000     -69.66830000
C      -48.00740000     -32.28310000     -68.96740000
S      -48.33960000     -30.92180000     -73.04890000
S      -49.36250000     -31.63460000     -69.95470000
H      -48.20830000     -32.61060000     -67.96310000
