40
Properties=species:S:1:pos:R:3 #=T CELL(abcABC):=T 1.889726e+02=T 90.00000=T Traj:=T positionsangstrom=T Step:=T 0=T Bead:=T pbc="F F F"
C      -46.35730000     -31.90790000     -75.40130000
C      -45.52480000     -32.92020000     -74.87760000
C      -46.03980000     -33.95760000     -74.09330000
C      -47.38660000     -33.87930000     -73.65670000
C      -48.18980000     -32.75000000     -74.02610000
C      -47.71380000     -31.77710000     -74.89650000
H      -45.98750000     -30.99420000     -76.00290000
H      -45.39010000     -34.79890000     -73.72360000
H      -49.23320000     -32.74350000     -73.65960000
H      -48.38100000     -31.01950000     -75.19130000
C      -48.01870000     -34.93750000     -72.82280000
H      -47.75090000     -35.90490000     -73.18920000
H      -49.12910000     -34.75910000     -72.72700000
C      -44.04880000     -33.08680000     -75.24440000
H      -43.84140000     -33.98010000     -75.84250000
H      -43.69510000     -32.26990000     -75.80080000
S      -47.32970000     -34.88320000     -71.03330000
S      -42.98760000     -33.20450000     -73.73810000
C      -48.10090000     -33.44080000     -70.28380000
H      -48.73160000     -33.01620000     -71.03110000
H      -48.83030000     -33.88800000     -69.63120000
C      -43.61820000     -31.76740000     -72.77080000
H      -44.17580000     -31.15380000     -73.53830000
H      -42.67000000     -31.20850000     -72.46830000
C      -44.53810000     -32.08720000     -71.60440000
H      -44.95850000     -31.14740000     -71.24140000
H      -45.28550000     -32.81160000     -71.91490000
C      -47.18660000     -32.40160000     -69.69800000
H      -47.88670000     -31.70560000     -69.13150000
H      -46.79210000     -31.91710000     -70.55250000
C      -46.04860000     -32.87330000     -68.84150000
C      -46.20200000     -33.28000000     -67.50110000
C      -44.68700000     -33.05400000     -69.23390000
H      -47.10860000     -33.38400000     -66.96350000
C      -44.02210000     -33.92110000     -68.35260000
C      -43.93030000     -32.84540000     -70.46980000
C      -42.62100000     -33.36310000     -70.37240000
S      -44.74770000     -34.05250000     -66.84750000
S      -42.39400000     -34.20590000     -68.90260000
H      -41.86530000     -33.35420000     -71.19580000
