40
Properties=species:S:1:pos:R:3 #=T CELL(abcABC):=T 1.889726e+02=T 90.00000=T Traj:=T positionsangstrom=T Step:=T 0=T Bead:=T pbc="F F F"
C      -46.48820000     -31.91470000     -75.28200000
C      -45.62960000     -32.83760000     -74.55280000
C      -46.26410000     -33.82360000     -73.76710000
C      -47.65300000     -33.77520000     -73.58650000
C      -48.46180000     -32.69240000     -74.07530000
C      -47.80770000     -31.80070000     -74.96670000
H      -46.11030000     -31.12380000     -75.82900000
H      -45.68930000     -34.55160000     -73.27390000
H      -49.50100000     -32.64270000     -73.89540000
H      -48.38330000     -31.02970000     -75.47210000
C      -48.26690000     -34.78960000     -72.59220000
H      -48.09390000     -35.86710000     -72.92280000
H      -49.35190000     -34.67750000     -72.58960000
C      -44.20520000     -32.84150000     -75.04840000
H      -44.13800000     -33.70060000     -75.69090000
H      -43.86870000     -31.94430000     -75.66850000
S      -47.43130000     -34.75380000     -70.91650000
S      -42.88490000     -33.09120000     -73.78700000
C      -48.14100000     -33.11630000     -70.24610000
H      -48.57130000     -32.57210000     -71.09700000
H      -48.94230000     -33.44860000     -69.58630000
C      -43.33760000     -31.62140000     -72.72340000
H      -43.60130000     -30.85660000     -73.35100000
H      -42.43410000     -31.28630000     -72.24270000
C      -44.30130000     -31.96670000     -71.65400000
H      -44.63700000     -30.99900000     -71.15430000
H      -45.23920000     -32.37380000     -72.03130000
C      -47.06300000     -32.27670000     -69.50250000
H      -47.49840000     -31.55270000     -68.78620000
H      -46.55540000     -31.64710000     -70.27340000
C      -45.98530000     -33.12130000     -68.86140000
C      -46.20560000     -33.73090000     -67.67660000
C      -44.60930000     -33.20070000     -69.36140000
H      -47.16770000     -33.82720000     -67.10210000
C      -43.88690000     -33.99570000     -68.46240000
C      -43.76360000     -32.80190000     -70.53190000
C      -42.48520000     -33.22200000     -70.46500000
S      -44.77430000     -34.59460000     -67.10200000
S      -42.25370000     -34.26820000     -69.06310000
H      -41.76180000     -33.04450000     -71.23070000
