40
Properties=species:S:1:pos:R:3 #=T CELL(abcABC):=T 1.889726e+02=T 90.00000=T Traj:=T positionsangstrom=T Step:=T 0=T Bead:=T pbc="F F F"
C      -45.25010000     -33.76370000     -69.02330000
C      -46.54780000     -33.41090000     -69.34110000
C      -47.35340000     -34.37670000     -69.97440000
C      -46.86500000     -35.60560000     -70.37130000
C      -45.55900000     -36.02770000     -70.10230000
C      -44.75360000     -35.03930000     -69.38680000
H      -44.65690000     -33.08790000     -68.46920000
H      -48.32880000     -34.02590000     -70.17480000
H      -45.16630000     -36.99800000     -70.34270000
H      -43.80380000     -35.42810000     -69.04270000
C      -47.77540000     -36.60000000     -71.06080000
H      -48.70070000     -36.79350000     -70.49300000
H      -47.25830000     -37.56180000     -71.18810000
C      -47.18360000     -32.15180000     -68.75720000
H      -48.24370000     -31.96650000     -69.15330000
H      -47.33860000     -32.35340000     -67.64060000
S      -48.31980000     -35.95420000     -72.73440000
S      -46.07530000     -30.66120000     -68.98430000
C      -46.72240000     -35.45020000     -73.48080000
H      -45.91920000     -36.13100000     -73.03800000
H      -46.74650000     -35.63720000     -74.57430000
C      -46.46620000     -29.99700000     -70.68750000
H      -45.99420000     -29.02490000     -70.65690000
H      -47.57590000     -29.91570000     -70.83360000
C      -46.02310000     -30.93050000     -71.79830000
H      -46.55570000     -31.84590000     -71.68650000
H      -46.38810000     -30.44570000     -72.72950000
C      -46.36030000     -34.00560000     -73.15610000
H      -46.84340000     -33.72860000     -72.24060000
H      -46.77380000     -33.41970000     -73.98420000
C      -44.87830000     -33.81360000     -72.87200000
C      -43.97270000     -34.84670000     -73.21090000
C      -44.20700000     -32.62820000     -72.33550000
H      -44.35120000     -35.85000000     -73.61140000
C      -42.84090000     -32.87160000     -72.19270000
C      -44.57560000     -31.29340000     -71.90070000
C      -43.49050000     -30.54700000     -71.49990000
S      -42.32000000     -34.46600000     -72.67020000
S      -41.94580000     -31.42230000     -71.71090000
H      -43.46330000     -29.53110000     -71.33550000
