40
Properties=species:S:1:pos:R:3 #=T CELL(abcABC):=T 1.889726e+02=T 90.00000=T Traj:=T positionsangstrom=T Step:=T 0=T Bead:=T pbc="F F F"
C      -46.50890000     -31.46470000     -74.82240000
C      -45.72610000     -32.64210000     -74.57460000
C      -46.34810000     -33.58620000     -73.76110000
C      -47.69480000     -33.51510000     -73.40530000
C      -48.44360000     -32.38120000     -73.78850000
C      -47.85010000     -31.37770000     -74.51530000
H      -46.04830000     -30.58920000     -75.30280000
H      -45.81980000     -34.45620000     -73.30930000
H      -49.50750000     -32.58510000     -73.86530000
H      -48.63420000     -30.58100000     -74.65060000
C      -48.42020000     -34.57900000     -72.68470000
H      -48.34660000     -35.55810000     -73.16820000
H      -49.53250000     -34.36860000     -72.60590000
C      -44.34150000     -32.81410000     -75.09230000
H      -44.27660000     -33.59340000     -75.87580000
H      -44.04790000     -31.88780000     -75.50070000
S      -47.72520000     -34.79710000     -70.98090000
S      -43.10300000     -33.25030000     -73.78800000
C      -48.16690000     -33.22040000     -70.21000000
H      -48.69510000     -32.54410000     -70.87410000
H      -48.85400000     -33.36040000     -69.35650000
C      -43.14070000     -31.73200000     -72.70470000
H      -43.55270000     -30.90990000     -73.31740000
H      -42.21000000     -31.37080000     -72.43450000
C      -44.12270000     -31.90980000     -71.56830000
H      -44.41550000     -30.89220000     -71.15970000
H      -45.14350000     -32.23910000     -71.93080000
C      -46.89150000     -32.47490000     -69.81440000
H      -47.14560000     -31.59110000     -69.21110000
H      -46.53920000     -31.96250000     -70.70250000
C      -45.84830000     -33.28450000     -69.09700000
C      -46.13070000     -33.99340000     -67.96940000
C      -44.44370000     -33.35150000     -69.41400000
H      -47.14070000     -34.16960000     -67.61210000
C      -43.72440000     -34.11870000     -68.50990000
C      -43.66100000     -32.88510000     -70.56150000
C      -42.34610000     -33.28400000     -70.34910000
S      -44.73820000     -34.81150000     -67.32670000
S      -42.06010000     -34.23730000     -68.97500000
H      -41.54070000     -33.02860000     -71.00840000
