40
Properties=species:S:1:pos:R:3 #=T CELL(abcABC):=T 1.889726e+02=T 90.00000=T Traj:=T positionsangstrom=T Step:=T 0=T Bead:=T pbc="F F F"
C      -43.06320000     -34.80260000     -74.28680000
C      -44.41990000     -34.47660000     -74.52230000
C      -44.82230000     -33.10790000     -74.44250000
C      -43.89360000     -32.21190000     -73.93030000
C      -42.54260000     -32.54490000     -73.61640000
C      -42.08680000     -33.85730000     -73.87140000
H      -42.77070000     -35.88300000     -74.26210000
H      -45.81520000     -32.74360000     -74.74590000
H      -41.90440000     -31.70130000     -73.37650000
H      -41.05820000     -34.12310000     -73.53780000
C      -44.29280000     -30.75540000     -73.70000000
H      -45.34260000     -30.79810000     -73.52060000
H      -44.13930000     -30.08630000     -74.57360000
C      -45.35130000     -35.52560000     -74.98010000
H      -45.56950000     -35.38390000     -76.10100000
H      -44.92620000     -36.53950000     -74.89610000
S      -43.62390000     -29.87080000     -72.19960000
S      -47.01130000     -35.39890000     -74.12280000
C      -43.87150000     -30.91610000     -70.74390000
H      -43.16270000     -31.65940000     -70.82580000
H      -43.51510000     -30.21950000     -69.99380000
C      -46.73540000     -35.77370000     -72.34030000
H      -45.79040000     -36.42950000     -72.32730000
H      -47.55150000     -36.41860000     -71.97080000
C      -46.73830000     -34.39340000     -71.62160000
H      -45.90600000     -33.80230000     -72.00010000
H      -47.67420000     -33.85130000     -71.95820000
C      -45.28570000     -31.45650000     -70.57830000
H      -45.37060000     -32.08760000     -71.38320000
H      -45.89750000     -30.56500000     -70.68530000
C      -45.54120000     -32.20590000     -69.32640000
C      -45.15510000     -31.71160000     -68.10160000
C      -46.13230000     -33.52540000     -69.27630000
H      -44.67580000     -30.80640000     -67.90600000
C      -46.21840000     -33.96760000     -67.94850000
C      -46.68830000     -34.45450000     -70.14610000
C      -47.30230000     -35.50990000     -69.51110000
S      -45.65800000     -32.80670000     -66.86460000
S      -47.15940000     -35.37420000     -67.77860000
H      -47.90970000     -36.30210000     -69.95020000
