40
Properties=species:S:1:pos:R:3 #=T CELL(abcABC):=T 1.889726e+02=T 90.00000=T Traj:=T positionsangstrom=T Step:=T 0=T Bead:=T pbc="F F F"
C      -43.47450000     -36.89470000     -70.00220000
C      -42.79070000     -35.65400000     -70.22150000
C      -42.64610000     -35.10880000     -71.50700000
C      -43.33850000     -35.70280000     -72.57950000
C      -44.07930000     -36.86470000     -72.30000000
C      -44.07560000     -37.54720000     -71.07720000
H      -43.59770000     -37.21250000     -68.97650000
H      -42.05630000     -34.21740000     -71.71600000
H      -44.55330000     -37.33900000     -73.17580000
H      -44.63350000     -38.48960000     -70.90160000
C      -43.28110000     -35.05010000     -73.94010000
H      -43.25460000     -35.78100000     -74.77750000
H      -42.32530000     -34.59020000     -73.98610000
C      -42.13820000     -35.10510000     -68.97660000
H      -42.15350000     -35.91680000     -68.09000000
H      -41.11270000     -34.83850000     -69.09920000
S      -44.61590000     -33.80500000     -74.33370000
S      -42.93100000     -33.56410000     -68.42620000
C      -43.91460000     -32.16200000     -73.66850000
H      -42.80540000     -32.25100000     -73.71830000
H      -44.21240000     -31.35320000     -74.39970000
C      -44.65210000     -33.64490000     -69.20160000
H      -45.23760000     -34.32070000     -68.58250000
H      -44.63190000     -34.01880000     -70.29650000
C      -45.43250000     -32.30430000     -69.07730000
H      -45.58620000     -32.05050000     -67.99650000
H      -44.91650000     -31.45880000     -69.51140000
C      -44.46890000     -31.77360000     -72.26340000
H      -43.99760000     -30.77740000     -71.91780000
H      -44.01730000     -32.48950000     -71.57730000
C      -45.95650000     -31.61000000     -72.22450000
C      -46.63620000     -31.18330000     -73.31010000
C      -46.85530000     -31.90460000     -71.07590000
H      -46.20310000     -30.88600000     -74.29230000
C      -48.16740000     -31.48640000     -71.38630000
C      -46.75640000     -32.29840000     -69.69350000
C      -47.95160000     -32.29850000     -69.06270000
S      -48.40050000     -31.01910000     -73.04250000
S      -49.31310000     -31.93940000     -70.14440000
H      -48.17790000     -32.61930000     -68.09170000
