40
Properties=species:S:1:pos:R:3 #=T CELL(abcABC):=T 1.889726e+02=T 90.00000=T Traj:=T positionsangstrom=T Step:=T 0=T Bead:=T pbc="F F F"
C      -43.31820000     -34.76790000     -74.30690000
C      -44.59210000     -34.31260000     -74.69980000
C      -44.94600000     -32.96040000     -74.57420000
C      -44.01780000     -32.02400000     -74.13300000
C      -42.64020000     -32.41790000     -74.12590000
C      -42.33540000     -33.78600000     -74.14060000
H      -42.98970000     -35.80210000     -74.40720000
H      -46.02450000     -32.70900000     -74.72740000
H      -41.83460000     -31.70110000     -74.05500000
H      -41.29220000     -34.20850000     -73.94970000
C      -44.42790000     -30.48880000     -74.06160000
H      -45.31480000     -30.25630000     -74.54490000
H      -43.72700000     -29.88540000     -74.57760000
C      -45.64720000     -35.32100000     -75.12900000
H      -45.92450000     -35.03210000     -76.15680000
H      -45.20190000     -36.33470000     -75.00150000
S      -44.44490000     -29.87530000     -72.32480000
S      -47.23060000     -35.24890000     -74.00480000
C      -44.64990000     -31.24650000     -71.13630000
H      -44.58960000     -32.16370000     -71.74370000
H      -43.78770000     -31.30820000     -70.57370000
C      -46.39580000     -35.43660000     -72.33540000
H      -45.40190000     -35.28760000     -72.55340000
H      -46.51430000     -36.47940000     -71.85290000
C      -47.06440000     -34.38520000     -71.39420000
H      -46.74890000     -33.43650000     -71.84170000
H      -48.16530000     -34.34900000     -71.33610000
C      -45.84890000     -31.12620000     -70.14590000
H      -46.82230000     -31.26300000     -70.55420000
H      -45.87800000     -30.14760000     -69.70260000
C      -45.67690000     -32.14480000     -69.03490000
C      -45.05920000     -31.73760000     -67.90840000
C      -46.13280000     -33.53300000     -69.03230000
H      -44.58750000     -30.80120000     -67.77570000
C      -45.78830000     -34.07240000     -67.79740000
C      -46.52340000     -34.54600000     -70.00300000
C      -46.64590000     -35.73750000     -69.36870000
S      -44.97880000     -33.02820000     -66.69360000
S      -46.12140000     -35.78000000     -67.76180000
H      -47.00450000     -36.63250000     -69.83850000
