40
Properties=species:S:1:pos:R:3 #=T CELL(abcABC):=T 1.889726e+02=T 90.00000=T Traj:=T positionsangstrom=T Step:=T 0=T Bead:=T pbc="F F F"
C      -43.12430000     -34.49100000     -74.16000000
C      -44.45560000     -34.22990000     -74.55590000
C      -45.01610000     -32.94490000     -74.67650000
C      -44.18490000     -31.83650000     -74.36960000
C      -42.83420000     -32.10970000     -73.97640000
C      -42.37900000     -33.38830000     -73.85520000
H      -42.74120000     -35.47840000     -74.32410000
H      -46.05070000     -32.83280000     -74.85190000
H      -42.24450000     -31.29310000     -73.70800000
H      -41.39730000     -33.52810000     -73.38330000
C      -44.80570000     -30.50630000     -74.37910000
H      -45.77290000     -30.47660000     -74.94080000
H      -44.09110000     -29.73760000     -74.84870000
C      -45.44970000     -35.33330000     -74.91330000
H      -45.72030000     -35.05240000     -75.91850000
H      -44.99180000     -36.37320000     -74.71040000
S      -45.12600000     -29.89300000     -72.61050000
S      -47.04710000     -35.22890000     -73.92130000
C      -44.91790000     -31.43540000     -71.45470000
H      -44.82860000     -32.40910000     -71.96930000
H      -43.99060000     -31.38270000     -70.90220000
C      -46.43990000     -35.63680000     -72.25340000
H      -45.38410000     -35.63880000     -72.34690000
H      -46.79410000     -36.65270000     -71.91390000
C      -46.86010000     -34.61240000     -71.23660000
H      -46.51400000     -33.70290000     -71.71980000
H      -47.94470000     -34.39580000     -71.19140000
C      -46.09170000     -31.40010000     -70.43240000
H      -47.00380000     -31.68460000     -71.00070000
H      -46.28740000     -30.34910000     -70.16770000
C      -45.81070000     -32.25100000     -69.12710000
C      -45.20520000     -31.62610000     -68.04100000
C      -45.99860000     -33.68550000     -68.93590000
H      -44.99590000     -30.56970000     -67.87060000
C      -45.56670000     -34.15930000     -67.70930000
C      -46.35000000     -34.75510000     -69.81880000
C      -46.23070000     -36.00910000     -69.19000000
S      -44.83780000     -32.80450000     -66.73180000
S      -45.71500000     -35.84550000     -67.60540000
H      -46.51890000     -36.98320000     -69.63620000
