40
Properties=species:S:1:pos:R:3 #=T CELL(abcABC):=T 1.889726e+02=T 90.00000=T Traj:=T positionsangstrom=T Step:=T 0=T Bead:=T pbc="F F F"
C      -43.19440000     -34.47230000     -74.25880000
C      -44.58900000     -34.13450000     -74.56120000
C      -45.01980000     -32.83450000     -74.57770000
C      -44.07710000     -31.82310000     -74.21180000
C      -42.80770000     -32.13100000     -73.86730000
C      -42.33020000     -33.45380000     -73.91780000
H      -42.79350000     -35.51040000     -74.21210000
H      -46.03770000     -32.59820000     -74.74810000
H      -42.19080000     -31.33290000     -73.41740000
H      -41.29650000     -33.67290000     -73.74380000
C      -44.60520000     -30.44010000     -74.25210000
H      -45.29340000     -30.18570000     -75.08330000
H      -43.82150000     -29.68110000     -74.30340000
C      -45.43270000     -35.24690000     -75.00430000
H      -45.94340000     -35.02830000     -76.02090000
H      -44.73510000     -36.04840000     -75.28840000
S      -45.72990000     -30.01050000     -72.76390000
S      -46.80060000     -35.74940000     -73.95290000
C      -45.31900000     -31.26390000     -71.49240000
H      -45.21980000     -32.23820000     -71.91230000
H      -44.35750000     -30.96820000     -71.14770000
C      -46.19030000     -35.72270000     -72.23150000
H      -45.04310000     -35.64110000     -72.27320000
H      -46.34480000     -36.67370000     -71.76020000
C      -46.83120000     -34.69860000     -71.20030000
H      -46.74980000     -33.72250000     -71.67710000
H      -47.92680000     -34.79520000     -71.09500000
C      -46.33380000     -31.28430000     -70.34480000
H      -47.22670000     -31.71150000     -70.75220000
H      -46.55500000     -30.28410000     -70.06430000
C      -45.67280000     -32.12110000     -69.20110000
C      -45.24170000     -31.55640000     -68.04600000
C      -45.72180000     -33.59020000     -69.04750000
H      -45.07040000     -30.46890000     -67.73150000
C      -45.29030000     -34.01070000     -67.80090000
C      -46.27500000     -34.71330000     -69.81440000
C      -46.29060000     -35.87230000     -69.07880000
S      -44.75240000     -32.76230000     -66.75840000
S      -45.62910000     -35.67410000     -67.48510000
H      -46.68130000     -36.88300000     -69.37580000
