40
Properties=species:S:1:pos:R:3 #=T CELL(abcABC):=T 1.889726e+02=T 90.00000=T Traj:=T positionsangstrom=T Step:=T 0=T Bead:=T pbc="F F F"
C      -43.28850000     -34.47000000     -74.12490000
C      -44.55850000     -34.13590000     -74.60980000
C      -44.96430000     -32.77550000     -74.67910000
C      -44.09220000     -31.81000000     -74.22720000
C      -42.80130000     -32.14810000     -73.78700000
C      -42.31300000     -33.45760000     -73.76280000
H      -42.90060000     -35.51120000     -74.19190000
H      -46.03660000     -32.48500000     -75.08890000
H      -42.05130000     -31.36120000     -73.44230000
H      -41.35060000     -33.76850000     -73.36210000
C      -44.52860000     -30.37530000     -74.00990000
H      -44.83780000     -29.92000000     -74.93510000
H      -43.72460000     -29.73990000     -73.57190000
C      -45.54610000     -35.27150000     -75.03380000
H      -46.11380000     -34.79660000     -75.77900000
H      -44.90430000     -36.09210000     -75.42290000
S      -46.02990000     -30.31030000     -72.88420000
S      -46.80500000     -35.73800000     -73.76570000
C      -45.18440000     -31.07350000     -71.48770000
H      -44.79770000     -32.04510000     -71.80310000
H      -44.30910000     -30.48410000     -71.12030000
C      -45.92770000     -35.60470000     -72.10480000
H      -44.93590000     -35.25840000     -72.27330000
H      -45.92230000     -36.67560000     -71.75290000
C      -46.67750000     -34.53780000     -71.23630000
H      -46.39890000     -33.50480000     -71.50360000
H      -47.74170000     -34.59020000     -71.46390000
C      -46.19700000     -31.19060000     -70.36910000
H      -47.21850000     -31.41590000     -70.73200000
H      -46.48360000     -30.25620000     -69.85540000
C      -45.80630000     -32.12430000     -69.20450000
C      -45.23940000     -31.56120000     -68.09790000
C      -45.95780000     -33.54090000     -68.99700000
H      -45.12920000     -30.50250000     -67.88870000
C      -45.45010000     -33.99720000     -67.74730000
C      -46.30100000     -34.68190000     -69.84670000
C      -46.22830000     -35.89890000     -69.22120000
S      -44.71210000     -32.68490000     -66.87390000
S      -45.48900000     -35.80000000     -67.59580000
H      -46.40390000     -36.83310000     -69.65980000
