40
Properties=species:S:1:pos:R:3 #=T CELL(abcABC):=T 1.889726e+02=T 90.00000=T Traj:=T positionsangstrom=T Step:=T 0=T Bead:=T pbc="F F F"
C      -41.78880000     -32.45610000     -73.43580000
C      -42.23440000     -33.75110000     -73.04970000
C      -42.36640000     -34.03520000     -71.66290000
C      -42.04000000     -33.00110000     -70.74160000
C      -41.64210000     -31.72930000     -71.17140000
C      -41.56140000     -31.46480000     -72.53120000
H      -41.59790000     -32.07780000     -74.52410000
H      -42.71490000     -34.95600000     -71.24150000
H      -41.44690000     -30.94650000     -70.42970000
H      -41.25830000     -30.50180000     -72.92220000
C      -41.94980000     -33.18570000     -69.26030000
H      -41.99180000     -32.25840000     -68.71690000
H      -41.01980000     -33.68120000     -69.08600000
C      -42.79730000     -34.72270000     -74.04010000
H      -41.97530000     -34.98470000     -74.80760000
H      -43.14940000     -35.59660000     -73.49830000
S      -43.08100000     -34.36330000     -68.41030000
S      -44.20700000     -34.16800000     -75.06470000
C      -44.87340000     -33.95400000     -69.01480000
H      -45.11290000     -34.69470000     -69.77500000
H      -45.56830000     -34.25570000     -68.22680000
C      -45.63860000     -34.50760000     -73.97820000
H      -45.65700000     -35.57270000     -73.68620000
H      -46.47000000     -34.36030000     -74.59790000
C      -45.81360000     -33.63700000     -72.66910000
H      -45.16910000     -34.04190000     -71.89670000
H      -45.47670000     -32.58790000     -72.97830000
C      -45.20470000     -32.53550000     -69.62140000
H      -44.64540000     -32.34190000     -70.53190000
H      -44.75960000     -31.78960000     -68.99640000
C      -46.71010000     -32.51620000     -69.73080000
C      -47.49070000     -32.05150000     -68.67690000
C      -47.48960000     -33.06330000     -70.81060000
H      -47.15330000     -31.44890000     -67.84010000
C      -48.82720000     -33.15200000     -70.49550000
C      -47.19570000     -33.53030000     -72.11890000
C      -48.34010000     -33.96410000     -72.77490000
S      -49.19190000     -32.47720000     -68.95490000
S      -49.76840000     -33.88600000     -71.73520000
H      -48.47630000     -34.30340000     -73.78920000
