40
Properties=species:S:1:pos:R:3 #=T CELL(abcABC):=T 1.889726e+02=T 90.00000=T Traj:=T positionsangstrom=T Step:=T 0=T Bead:=T pbc="F F F"
C      -43.63520000     -36.90780000     -70.01540000
C      -42.93090000     -35.71620000     -70.14090000
C      -42.78890000     -35.05040000     -71.38460000
C      -43.37910000     -35.61560000     -72.52510000
C      -44.20930000     -36.73860000     -72.36060000
C      -44.21650000     -37.47300000     -71.15540000
H      -43.64030000     -37.51070000     -69.15250000
H      -42.10630000     -34.22390000     -71.39060000
H      -44.85370000     -37.05770000     -73.22240000
H      -44.70620000     -38.43890000     -71.07000000
C      -43.29320000     -35.03120000     -73.88730000
H      -43.27230000     -35.80090000     -74.69910000
H      -42.35730000     -34.47000000     -73.95980000
C      -42.20130000     -35.14040000     -68.98430000
H      -42.31840000     -35.74010000     -68.09700000
H      -41.19760000     -34.93860000     -69.16790000
S      -44.71940000     -33.83430000     -74.28990000
S      -42.92160000     -33.45580000     -68.49090000
C      -43.91130000     -32.21660000     -73.73460000
H      -42.85670000     -32.42220000     -73.63670000
H      -44.08400000     -31.51370000     -74.54250000
C      -44.70580000     -33.52880000     -69.02140000
H      -45.13220000     -34.40720000     -68.57890000
H      -44.74950000     -33.73210000     -70.03410000
C      -45.37480000     -32.18090000     -68.80110000
H      -45.67520000     -31.95310000     -67.83190000
H      -44.60570000     -31.44020000     -69.19120000
C      -44.38780000     -31.77190000     -72.34980000
H      -43.81720000     -30.88120000     -72.03900000
H      -44.06260000     -32.52570000     -71.69170000
C      -45.92990000     -31.50720000     -72.27600000
C      -46.67510000     -31.26350000     -73.41200000
C      -46.75400000     -31.73300000     -71.11200000
H      -46.29240000     -31.16610000     -74.40730000
C      -48.13090000     -31.63130000     -71.45200000
C      -46.56620000     -32.02780000     -69.73890000
C      -47.75620000     -32.24600000     -69.07140000
S      -48.43270000     -31.32430000     -73.13420000
S      -49.09690000     -32.02200000     -70.09850000
H      -47.85440000     -32.25540000     -68.00020000
