40
Properties=species:S:1:pos:R:3 #=T CELL(abcABC):=T 1.889726e+02=T 90.00000=T Traj:=T positionsangstrom=T Step:=T 0=T Bead:=T pbc="F F F"
C      -41.88420000     -32.46240000     -73.65360000
C      -42.31370000     -33.64720000     -73.04560000
C      -42.32680000     -33.77730000     -71.59890000
C      -41.98820000     -32.64000000     -70.81990000
C      -41.48610000     -31.50960000     -71.47900000
C      -41.40300000     -31.47090000     -72.82380000
H      -41.83420000     -32.48140000     -74.71590000
H      -42.60080000     -34.72570000     -71.08680000
H      -41.22380000     -30.61600000     -70.98140000
H      -40.99680000     -30.56810000     -73.29210000
C      -42.13710000     -32.61680000     -69.34960000
H      -42.77800000     -31.78500000     -69.13360000
H      -41.17590000     -32.53840000     -68.84310000
C      -42.71820000     -34.92110000     -73.90040000
H      -41.95650000     -35.07090000     -74.61780000
H      -42.85380000     -35.89150000     -73.30520000
S      -42.97730000     -34.08750000     -68.55110000
S      -44.18580000     -34.61200000     -74.91220000
C      -44.78410000     -33.85960000     -69.02370000
H      -45.05050000     -34.34780000     -69.95340000
H      -45.44130000     -34.30530000     -68.21230000
C      -45.63140000     -34.74050000     -73.79640000
H      -45.66750000     -35.75970000     -73.42670000
H      -46.60110000     -34.56200000     -74.36300000
C      -45.67200000     -33.85300000     -72.58160000
H      -44.93100000     -34.09390000     -71.71300000
H      -45.29990000     -32.87070000     -72.91680000
C      -45.31910000     -32.40610000     -69.36120000
H      -44.91130000     -32.09990000     -70.30360000
H      -45.04740000     -31.66000000     -68.59940000
C      -46.83000000     -32.45450000     -69.57010000
C      -47.74550000     -31.85480000     -68.68850000
C      -47.45990000     -33.18080000     -70.70160000
H      -47.50890000     -31.45920000     -67.69170000
C      -48.87550000     -33.18520000     -70.53400000
C      -47.05990000     -33.69490000     -72.03390000
C      -48.17350000     -34.27350000     -72.58320000
S      -49.45170000     -32.28560000     -69.14050000
S      -49.68080000     -34.19410000     -71.68220000
H      -48.11880000     -34.96350000     -73.39390000
