40
Properties=species:S:1:pos:R:3 #=T CELL(abcABC):=T 1.889726e+02=T 90.00000=T Traj:=T positionsangstrom=T Step:=T 0=T Bead:=T pbc="F F F"
C      -41.60520000     -32.63650000     -73.73120000
C      -42.18180000     -33.70880000     -73.05010000
C      -42.32730000     -33.62520000     -71.62210000
C      -41.98800000     -32.42660000     -70.94030000
C      -41.66570000     -31.29820000     -71.70570000
C      -41.40100000     -31.43480000     -73.05920000
H      -41.47710000     -32.64690000     -74.79420000
H      -42.50700000     -34.59730000     -71.16750000
H      -41.29650000     -30.35840000     -71.22530000
H      -41.04330000     -30.57040000     -73.51410000
C      -42.17790000     -32.31680000     -69.43530000
H      -42.59080000     -31.34350000     -69.09210000
H      -41.17740000     -32.33430000     -68.99540000
C      -42.55830000     -34.98660000     -73.67910000
H      -41.82830000     -35.43540000     -74.32370000
H      -42.81060000     -35.70590000     -72.81060000
S      -42.97410000     -33.84620000     -68.61660000
S      -44.02940000     -34.72930000     -74.74720000
C      -44.78920000     -33.86280000     -68.94830000
H      -44.99130000     -34.70280000     -69.60010000
H      -45.19270000     -34.14190000     -68.00330000
C      -45.64490000     -34.86460000     -73.78140000
H      -45.73350000     -35.84320000     -73.49380000
H      -46.41510000     -34.68330000     -74.53470000
C      -45.82830000     -33.91430000     -72.56850000
H      -45.02150000     -34.10710000     -71.84300000
H      -45.75310000     -32.90120000     -72.86460000
C      -45.30170000     -32.52120000     -69.38120000
H      -44.77670000     -32.15690000     -70.28910000
H      -45.06780000     -31.76730000     -68.64790000
C      -46.83550000     -32.60020000     -69.64870000
C      -47.67310000     -32.00750000     -68.73180000
C      -47.53870000     -33.27020000     -70.72610000
H      -47.48780000     -31.43190000     -67.84200000
C      -48.92780000     -33.24080000     -70.50330000
C      -47.21270000     -33.95150000     -71.98120000
C      -48.30980000     -34.53230000     -72.50660000
S      -49.35290000     -32.26190000     -69.06130000
S      -49.89320000     -34.09770000     -71.69400000
H      -48.39720000     -35.08200000     -73.39280000
