40
Properties=species:S:1:pos:R:3 #=T CELL(abcABC):=T 1.889726e+02=T 90.00000=T Traj:=T positionsangstrom=T Step:=T 0=T Bead:=T pbc="F F F"
C      -42.87270000     -34.33770000     -74.17560000
C      -44.21970000     -34.10480000     -74.59750000
C      -44.78930000     -32.82040000     -74.26430000
C      -43.98890000     -31.83190000     -73.70830000
C      -42.66000000     -32.05330000     -73.32720000
C      -42.10430000     -33.35460000     -73.56730000
H      -42.48190000     -35.30340000     -74.45130000
H      -45.83500000     -32.66120000     -74.60620000
H      -42.01220000     -31.31660000     -72.90880000
H      -41.02140000     -33.55600000     -73.43450000
C      -44.62390000     -30.42720000     -73.65360000
H      -44.74840000     -30.09540000     -74.66900000
H      -44.03340000     -29.74190000     -73.02620000
C      -45.12000000     -35.09310000     -75.26460000
H      -45.72560000     -34.61570000     -76.06680000
H      -44.43810000     -35.81210000     -75.77230000
S      -46.37250000     -30.43180000     -73.03010000
S      -46.17420000     -35.99120000     -74.06770000
C      -46.05580000     -30.96060000     -71.21750000
H      -45.27380000     -31.75150000     -71.28510000
H      -45.57650000     -30.16240000     -70.61550000
C      -45.43940000     -35.81770000     -72.31150000
H      -44.27010000     -35.62980000     -72.34020000
H      -45.79040000     -36.75670000     -71.84820000
C      -46.03650000     -34.62900000     -71.55670000
H      -45.76070000     -33.66650000     -71.99720000
H      -47.09900000     -34.64090000     -71.53550000
C      -47.17200000     -31.45470000     -70.37110000
H      -48.01470000     -31.93620000     -70.90950000
H      -47.66950000     -30.56820000     -69.92380000
C      -46.68530000     -32.24230000     -69.16940000
C      -46.84020000     -31.78690000     -67.88930000
C      -45.90280000     -33.54230000     -69.08660000
H      -47.26490000     -30.75260000     -67.63550000
C      -45.50030000     -33.84210000     -67.80140000
C      -45.60390000     -34.61890000     -70.08770000
C      -44.83510000     -35.57990000     -69.53510000
S      -46.05220000     -32.71900000     -66.65430000
S      -44.65500000     -35.43860000     -67.75810000
H      -44.59730000     -36.65020000     -69.86270000
