40
Properties=species:S:1:pos:R:3 #=T CELL(abcABC):=T 1.889726e+02=T 90.00000=T Traj:=T positionsangstrom=T Step:=T 0=T Bead:=T pbc="F F F"
C      -42.06130000     -35.57740000     -69.14290000
C      -43.31650000     -34.98520000     -68.79010000
C      -43.49350000     -33.61410000     -69.04740000
C      -42.53260000     -32.83540000     -69.62820000
C      -41.36130000     -33.48950000     -70.08250000
C      -41.12050000     -34.78480000     -69.77110000
H      -41.88030000     -36.59500000     -68.96430000
H      -44.42370000     -33.09370000     -68.64600000
H      -40.59340000     -32.89560000     -70.53020000
H      -40.12610000     -35.17140000     -69.91300000
C      -42.92860000     -31.36820000     -69.80970000
H      -42.40980000     -30.77220000     -69.04020000
H      -44.02090000     -31.36070000     -69.52860000
C      -44.16250000     -35.76050000     -67.84600000
H      -43.90700000     -36.81650000     -67.81050000
H      -44.00460000     -35.47840000     -66.79540000
S      -42.51750000     -30.57030000     -71.42270000
S      -46.02200000     -35.48260000     -68.07370000
C      -44.01180000     -31.41570000     -72.36570000
H      -43.89160000     -31.24970000     -73.42410000
H      -43.78910000     -32.46310000     -72.25260000
C      -46.32590000     -35.72780000     -69.93280000
H      -47.27900000     -36.26050000     -70.09310000
H      -45.49730000     -36.38510000     -70.27960000
C      -46.32350000     -34.37730000     -70.63830000
H      -46.93250000     -33.70520000     -70.02860000
H      -45.27910000     -33.93760000     -70.55090000
C      -45.43090000     -31.16270000     -71.75030000
H      -45.48020000     -30.10020000     -71.69140000
H      -45.53790000     -31.55440000     -70.76600000
C      -46.57160000     -31.64420000     -72.65730000
C      -47.08360000     -30.83340000     -73.63050000
C      -47.07740000     -33.01200000     -72.82560000
H      -46.81760000     -29.83430000     -73.88350000
C      -47.99020000     -33.17730000     -73.90100000
C      -46.91450000     -34.26330000     -72.04460000
C      -47.56860000     -35.28750000     -72.63120000
S      -48.19220000     -31.59590000     -74.70790000
S      -48.46710000     -34.86240000     -74.09980000
H      -47.62450000     -36.35360000     -72.35870000
