40
Properties=species:S:1:pos:R:3 #=T CELL(abcABC):=T 1.889726e+02=T 90.00000=T Traj:=T positionsangstrom=T Step:=T 0=T Bead:=T pbc="F F F"
C      -42.34680000     -35.60420000     -69.84540000
C      -43.29550000     -35.08260000     -68.96220000
C      -43.23080000     -33.68830000     -68.70360000
C      -42.39040000     -32.79680000     -69.41480000
C      -41.51100000     -33.35500000     -70.30280000
C      -41.48270000     -34.72530000     -70.56190000
H      -42.16620000     -36.67940000     -69.92290000
H      -43.97700000     -33.26310000     -68.10260000
H      -40.77850000     -32.71510000     -70.77500000
H      -40.81660000     -35.17130000     -71.24210000
C      -42.68450000     -31.33630000     -69.33140000
H      -41.97290000     -30.81520000     -68.69270000
H      -43.71150000     -31.12020000     -68.96120000
C      -44.36360000     -35.91830000     -68.30520000
H      -44.42370000     -36.91440000     -68.73190000
H      -44.02420000     -35.98140000     -67.31070000
S      -42.72600000     -30.63580000     -70.98830000
S      -46.08370000     -35.30410000     -68.00330000
C      -44.09960000     -31.63710000     -71.78890000
H      -43.90060000     -31.72140000     -72.86480000
H      -44.07320000     -32.69260000     -71.51710000
C      -46.80310000     -35.25500000     -69.73240000
H      -47.84100000     -34.90980000     -69.64950000
H      -46.68860000     -36.32870000     -69.95280000
C      -46.02040000     -34.49410000     -70.73870000
H      -45.68110000     -33.44360000     -70.37280000
H      -45.04340000     -35.00490000     -70.89700000
C      -45.56000000     -31.10260000     -71.60270000
H      -45.47770000     -30.02650000     -71.75560000
H      -46.02610000     -31.34400000     -70.64350000
C      -46.48850000     -31.66310000     -72.61930000
C      -46.87800000     -30.92340000     -73.74320000
C      -46.97890000     -33.00640000     -72.74090000
H      -46.71670000     -29.86100000     -73.77570000
C      -47.75090000     -33.18440000     -73.93440000
C      -46.74920000     -34.28700000     -72.11290000
C      -47.54040000     -35.29230000     -72.72670000
S      -47.91390000     -31.77420000     -74.89230000
S      -48.46830000     -34.77560000     -74.13770000
H      -47.59610000     -36.29030000     -72.36540000
