40
Properties=species:S:1:pos:R:3 #=T CELL(abcABC):=T 1.889726e+02=T 90.00000=T Traj:=T positionsangstrom=T Step:=T 0=T Bead:=T pbc="F F F"
C      -46.78680000     -34.18960000     -67.52520000
C      -45.56480000     -34.79170000     -68.00730000
C      -45.66180000     -35.57260000     -69.15100000
C      -46.89200000     -35.86550000     -69.79820000
C      -48.04780000     -35.33690000     -69.28490000
C      -48.00270000     -34.52450000     -68.14320000
H      -46.75000000     -33.55520000     -66.60930000
H      -44.69950000     -36.04990000     -69.48890000
H      -49.00630000     -35.51940000     -69.73180000
H      -48.87700000     -34.06450000     -67.75660000
C      -46.84960000     -36.41650000     -71.13600000
H      -47.70360000     -36.97720000     -71.56930000
H      -45.95550000     -37.07050000     -71.21510000
C      -44.19700000     -34.52670000     -67.36850000
H      -44.15530000     -33.94360000     -66.44800000
H      -43.61520000     -35.46180000     -67.27250000
S      -46.34820000     -35.12470000     -72.39430000
S      -43.21700000     -33.59090000     -68.66580000
C      -47.89300000     -34.07990000     -72.55330000
H      -48.44240000     -34.47160000     -73.48080000
H      -48.60040000     -34.36440000     -71.67410000
C      -44.41700000     -32.20510000     -68.94440000
H      -43.70980000     -31.39560000     -68.92100000
H      -45.01820000     -32.20240000     -68.03460000
C      -45.18490000     -32.13780000     -70.28920000
H      -45.70730000     -33.06400000     -70.37420000
H      -45.89430000     -31.31940000     -70.07320000
C      -47.58170000     -32.55630000     -72.56970000
H      -47.42950000     -32.22350000     -71.55120000
H      -48.53470000     -32.13060000     -72.93730000
C      -46.34700000     -32.12500000     -73.37110000
C      -46.31070000     -31.94610000     -74.73210000
C      -44.99010000     -32.04890000     -72.81350000
H      -47.18810000     -31.80100000     -75.42490000
C      -44.06770000     -31.98990000     -73.83910000
C      -44.31890000     -31.92930000     -71.55230000
C      -42.98420000     -31.68330000     -71.62330000
S      -44.69390000     -31.82980000     -75.45970000
S      -42.44470000     -31.64170000     -73.30420000
H      -42.25200000     -31.45940000     -70.83200000
