40
Properties=species:S:1:pos:R:3 #=T CELL(abcABC):=T 1.889726e+02=T 90.00000=T Traj:=T positionsangstrom=T Step:=T 0=T Bead:=T pbc="F F F"
C      -42.77230000     -36.02800000     -70.12290000
C      -43.44590000     -35.32630000     -69.08180000
C      -43.33930000     -33.98560000     -68.85350000
C      -42.43910000     -33.23410000     -69.64270000
C      -41.65610000     -33.93290000     -70.59440000
C      -41.97000000     -35.27720000     -70.97010000
H      -43.03130000     -37.02930000     -70.24230000
H      -43.97670000     -33.53220000     -68.13460000
H      -41.04490000     -33.29170000     -71.25330000
H      -41.37330000     -35.78130000     -71.73720000
C      -42.08290000     -31.78420000     -69.28500000
H      -41.19660000     -31.48860000     -69.80520000
H      -41.90130000     -31.62730000     -68.18760000
C      -44.42960000     -36.16980000     -68.23530000
H      -44.57470000     -37.12500000     -68.81960000
H      -44.10180000     -36.37630000     -67.19500000
S      -43.34810000     -30.49560000     -69.86720000
S      -46.16390000     -35.40310000     -68.16040000
C      -44.08830000     -31.23520000     -71.46780000
H      -43.63350000     -30.79330000     -72.36450000
H      -43.85250000     -32.31310000     -71.40500000
C      -46.76210000     -35.38580000     -69.91720000
H      -47.84960000     -35.37720000     -69.90730000
H      -46.46900000     -36.40480000     -70.37070000
C      -46.26350000     -34.22710000     -70.70850000
H      -46.62960000     -33.34730000     -70.18210000
H      -45.16350000     -34.11780000     -70.78200000
C      -45.61310000     -31.01870000     -71.49600000
H      -45.83320000     -29.98950000     -71.36520000
H      -46.08100000     -31.39680000     -70.58990000
C      -46.24170000     -31.59000000     -72.76060000
C      -46.40220000     -30.76320000     -73.79400000
C      -46.88220000     -32.87630000     -72.89440000
H      -46.16270000     -29.74630000     -73.77630000
C      -47.45250000     -32.95710000     -74.10260000
C      -46.86020000     -34.13210000     -72.08860000
C      -47.71860000     -34.97750000     -72.73290000
S      -47.26580000     -31.48710000     -75.08760000
S      -48.32460000     -34.47850000     -74.28530000
H      -47.96330000     -35.98370000     -72.33620000
