40
Properties=species:S:1:pos:R:3 #=T CELL(abcABC):=T 1.889726e+02=T 90.00000=T Traj:=T positionsangstrom=T Step:=T 0=T Bead:=T pbc="F F F"
C      -42.90860000     -35.99760000     -70.15700000
C      -43.43740000     -35.30550000     -69.06030000
C      -43.10260000     -34.02320000     -68.76060000
C      -42.28520000     -33.26680000     -69.63470000
C      -41.81950000     -33.88470000     -70.85130000
C      -42.15910000     -35.26340000     -71.09680000
H      -43.13930000     -37.04010000     -70.33760000
H      -43.53620000     -33.58190000     -67.89390000
H      -41.17550000     -33.36160000     -71.58130000
H      -41.79280000     -35.79700000     -72.00400000
C      -41.99880000     -31.88080000     -69.33100000
H      -41.17260000     -31.38080000     -69.85210000
H      -41.88440000     -31.70290000     -68.27420000
C      -44.48170000     -36.02560000     -68.26290000
H      -44.47790000     -37.05680000     -68.36600000
H      -44.31440000     -35.88460000     -67.19660000
S      -43.47700000     -30.74630000     -69.68680000
S      -46.23740000     -35.49310000     -68.18590000
C      -44.13460000     -31.41010000     -71.27630000
H      -43.48180000     -31.06890000     -72.14140000
H      -44.13300000     -32.48010000     -71.24940000
C      -46.70890000     -35.49130000     -69.94590000
H      -47.75430000     -35.68020000     -70.19210000
H      -46.07560000     -36.24510000     -70.36320000
C      -46.40600000     -34.10990000     -70.65330000
H      -46.77090000     -33.29980000     -69.99180000
H      -45.30870000     -33.96090000     -70.64120000
C      -45.55710000     -30.87720000     -71.53070000
H      -45.43850000     -29.79830000     -71.74520000
H      -46.18570000     -30.88040000     -70.57240000
C      -46.33370000     -31.40130000     -72.72620000
C      -46.46240000     -30.58910000     -73.84550000
C      -46.82400000     -32.74930000     -72.91070000
H      -45.89930000     -29.75480000     -73.89770000
C      -47.32500000     -32.95790000     -74.18440000
C      -46.92970000     -33.93680000     -72.02620000
C      -47.67060000     -34.90430000     -72.63620000
S      -47.21730000     -31.48900000     -75.13750000
S      -48.13980000     -34.46960000     -74.32970000
H      -47.78780000     -35.97730000     -72.39350000
