40
Properties=species:S:1:pos:R:3 #=T CELL(abcABC):=T 1.889726e+02=T 90.00000=T Traj:=T positionsangstrom=T Step:=T 0=T Bead:=T pbc="F F F"
C      -43.27900000     -35.81980000     -70.33760000
C      -43.58810000     -35.21990000     -69.13260000
C      -43.06900000     -33.99590000     -68.72690000
C      -42.29070000     -33.32250000     -69.61470000
C      -41.86620000     -33.95500000     -70.83590000
C      -42.41160000     -35.21850000     -71.22730000
H      -43.76300000     -36.77960000     -70.64120000
H      -43.39420000     -33.57170000     -67.74740000
H      -41.21130000     -33.39410000     -71.49150000
H      -42.28680000     -35.60440000     -72.22510000
C      -41.96530000     -31.85930000     -69.52030000
H      -41.27400000     -31.57590000     -70.36510000
H      -41.37680000     -31.70660000     -68.61450000
C      -44.42810000     -35.95060000     -68.07640000
H      -44.28160000     -37.03130000     -68.16310000
H      -44.07880000     -35.64390000     -66.97720000
S      -43.56410000     -30.94330000     -69.46110000
S      -46.21710000     -35.54820000     -68.21990000
C      -44.06770000     -31.24430000     -71.27950000
H      -43.36950000     -30.72900000     -71.90760000
H      -43.95090000     -32.32320000     -71.46980000
C      -46.57420000     -35.38920000     -70.08030000
H      -47.56370000     -35.93160000     -70.09600000
H      -45.91150000     -36.08360000     -70.60710000
C      -46.61720000     -33.94690000     -70.53350000
H      -47.37650000     -33.44280000     -69.92600000
H      -45.67520000     -33.38430000     -70.33240000
C      -45.53750000     -30.83850000     -71.44320000
H      -45.50460000     -29.72130000     -71.55620000
H      -46.04320000     -31.20670000     -70.55780000
C      -46.25320000     -31.38450000     -72.70340000
C      -46.30820000     -30.70670000     -73.93040000
C      -46.85020000     -32.65500000     -72.81080000
H      -45.85770000     -29.80410000     -74.21010000
C      -47.30450000     -32.93410000     -74.11570000
C      -46.96550000     -33.80910000     -72.00110000
C      -47.48520000     -34.90690000     -72.70190000
S      -47.23650000     -31.56270000     -75.20380000
S      -47.92090000     -34.52380000     -74.36900000
H      -47.86140000     -35.86590000     -72.38150000
