40
Properties=species:S:1:pos:R:3 #=T CELL(abcABC):=T 1.889726e+02=T 90.00000=T Traj:=T positionsangstrom=T Step:=T 0=T Bead:=T pbc="F F F"
C      -43.15910000     -35.99540000     -70.53210000
C      -43.76950000     -35.38510000     -69.42480000
C      -43.44870000     -34.02720000     -69.12200000
C      -42.50410000     -33.22640000     -69.83140000
C      -41.82870000     -33.93880000     -70.88640000
C      -42.12990000     -35.26450000     -71.26180000
H      -43.33030000     -37.09830000     -70.60740000
H      -43.96930000     -33.50410000     -68.32640000
H      -41.02340000     -33.49550000     -71.45720000
H      -41.62110000     -35.90620000     -71.96110000
C      -42.17410000     -31.88100000     -69.30280000
H      -41.25220000     -31.40820000     -69.65850000
H      -42.07920000     -31.91540000     -68.23360000
C      -44.70300000     -36.26130000     -68.59950000
H      -45.03450000     -37.16780000     -69.18260000
H      -44.17300000     -36.63920000     -67.73480000
S      -43.51830000     -30.65640000     -69.62900000
S      -46.22590000     -35.33460000     -67.99970000
C      -44.27610000     -31.33630000     -71.20810000
H      -43.62990000     -31.18160000     -72.00680000
H      -44.28210000     -32.41890000     -71.08250000
C      -47.06440000     -35.15080000     -69.66310000
H      -48.13460000     -35.22870000     -69.46430000
H      -46.78820000     -36.06100000     -70.22820000
C      -46.68690000     -33.84880000     -70.43390000
H      -47.26200000     -33.01530000     -70.07540000
H      -45.65510000     -33.64280000     -70.12830000
C      -45.68590000     -30.72520000     -71.40030000
H      -45.45610000     -29.66950000     -71.36860000
H      -46.20210000     -30.96570000     -70.48810000
C      -46.33340000     -31.39180000     -72.61560000
C      -46.27180000     -30.67320000     -73.81550000
C      -46.78410000     -32.75760000     -72.79960000
H      -46.10630000     -29.61010000     -73.88240000
C      -47.13550000     -33.02050000     -74.15010000
C      -46.91720000     -33.91840000     -71.91820000
C      -47.38520000     -35.00180000     -72.64360000
S      -46.96670000     -31.62750000     -75.12480000
S      -47.61560000     -34.68110000     -74.33530000
H      -47.62090000     -36.01570000     -72.22930000
