40
Properties=species:S:1:pos:R:3 #=T CELL(abcABC):=T 1.889726e+02=T 90.00000=T Traj:=T positionsangstrom=T Step:=T 0=T Bead:=T pbc="F F F"
C      -43.18350000     -36.06780000     -70.35420000
C      -43.73690000     -35.49570000     -69.18160000
C      -43.48320000     -34.12940000     -68.96750000
C      -42.47570000     -33.40380000     -69.64430000
C      -41.85230000     -33.99710000     -70.72130000
C      -42.26310000     -35.28170000     -71.08250000
H      -43.49480000     -37.01840000     -70.73250000
H      -43.94980000     -33.86430000     -68.06270000
H      -41.04070000     -33.47350000     -71.24160000
H      -41.75530000     -35.73030000     -71.95960000
C      -42.03410000     -31.91570000     -69.35050000
H      -41.05950000     -31.75740000     -69.94040000
H      -41.77990000     -31.78550000     -68.32590000
C      -44.75130000     -36.28650000     -68.37380000
H      -44.85320000     -37.16230000     -68.93790000
H      -44.34370000     -36.47520000     -67.30690000
S      -43.37580000     -30.69340000     -69.65660000
S      -46.36330000     -35.40390000     -68.11070000
C      -44.13800000     -31.08660000     -71.38850000
H      -43.59530000     -30.49590000     -72.21080000
H      -43.97670000     -32.14390000     -71.62680000
C      -47.08140000     -35.23090000     -69.84750000
H      -48.19630000     -35.30040000     -69.74950000
H      -46.69330000     -36.10590000     -70.32340000
C      -46.57210000     -33.96380000     -70.49570000
H      -46.99110000     -33.04160000     -70.03500000
H      -45.49340000     -33.80520000     -70.37630000
C      -45.66000000     -30.74240000     -71.40750000
H      -45.82620000     -29.61070000     -71.38270000
H      -46.24890000     -31.10030000     -70.59390000
C      -46.37100000     -31.27880000     -72.64520000
C      -46.38880000     -30.59940000     -73.88040000
C      -46.76930000     -32.68170000     -72.77190000
H      -46.11010000     -29.61740000     -74.09400000
C      -47.13740000     -32.96110000     -74.10150000
C      -46.91330000     -33.88020000     -71.93880000
C      -47.41670000     -34.90150000     -72.67060000
S      -46.99690000     -31.59320000     -75.18150000
S      -47.62100000     -34.59100000     -74.40510000
H      -47.58820000     -35.84380000     -72.14340000
