40
Properties=species:S:1:pos:R:3 #=T CELL(abcABC):=T 1.889726e+02=T 90.00000=T Traj:=T positionsangstrom=T Step:=T 0=T Bead:=T pbc="F F F"
C      -42.57330000     -35.75530000     -70.56500000
C      -43.32800000     -35.21990000     -69.49880000
C      -43.16760000     -33.89360000     -69.12810000
C      -42.31750000     -33.04640000     -69.90230000
C      -41.56320000     -33.58200000     -71.02160000
C      -41.69230000     -34.92880000     -71.28820000
H      -42.66940000     -36.75710000     -70.83860000
H      -43.70910000     -33.43720000     -68.24060000
H      -40.90830000     -32.86240000     -71.54130000
H      -41.13830000     -35.33160000     -72.07530000
C      -42.17720000     -31.65280000     -69.52220000
H      -41.27160000     -31.11770000     -70.04650000
H      -41.97290000     -31.60560000     -68.44780000
C      -44.21120000     -36.17540000     -68.73410000
H      -44.36860000     -37.08460000     -69.26180000
H      -43.86200000     -36.59050000     -67.79560000
S      -43.78420000     -30.68980000     -69.56580000
S      -45.87540000     -35.61920000     -68.10870000
C      -44.63210000     -31.26150000     -71.15160000
H      -44.15700000     -30.75230000     -72.05010000
H      -44.62310000     -32.38110000     -71.26770000
C      -46.95430000     -35.29400000     -69.61700000
H      -47.94870000     -35.08610000     -69.27460000
H      -46.95890000     -36.30010000     -70.08420000
C      -46.36980000     -34.21280000     -70.48780000
H      -46.37130000     -33.35030000     -69.87110000
H      -45.29570000     -34.56210000     -70.57520000
C      -46.14850000     -30.89610000     -71.14970000
H      -46.16620000     -29.78670000     -71.13040000
H      -46.74650000     -31.21850000     -70.28900000
C      -46.69400000     -31.41280000     -72.49910000
C      -46.67850000     -30.69180000     -73.68510000
C      -47.03400000     -32.79830000     -72.66010000
H      -46.49180000     -29.61630000     -73.87730000
C      -47.44950000     -33.03140000     -73.93640000
C      -46.89980000     -34.03920000     -71.91520000
C      -47.32880000     -35.07560000     -72.69150000
S      -47.32200000     -31.66520000     -75.08100000
S      -47.78940000     -34.67060000     -74.36340000
H      -47.19000000     -36.08980000     -72.34040000
