40
Properties=species:S:1:pos:R:3 #=T CELL(abcABC):=T 1.889726e+02=T 90.00000=T Traj:=T positionsangstrom=T Step:=T 0=T Bead:=T pbc="F F F"
C      -41.99590000     -35.41760000     -70.74510000
C      -42.69250000     -34.99950000     -69.53980000
C      -42.70040000     -33.63760000     -69.20980000
C      -42.12760000     -32.70430000     -70.11330000
C      -41.56140000     -33.13320000     -71.28160000
C      -41.48210000     -34.47690000     -71.62780000
H      -41.96590000     -36.48430000     -70.98050000
H      -43.23350000     -33.21010000     -68.36940000
H      -40.98340000     -32.49540000     -71.88120000
H      -40.96150000     -34.81840000     -72.51430000
C      -42.14550000     -31.27050000     -69.57490000
H      -41.36520000     -30.67860000     -70.07360000
H      -41.79090000     -31.30540000     -68.52470000
C      -43.34110000     -36.14440000     -68.71480000
H      -43.16630000     -37.13420000     -69.07800000
H      -43.02300000     -36.10420000     -67.68430000
S      -43.89160000     -30.63520000     -69.54800000
S      -45.16050000     -35.84290000     -68.51320000
C      -44.61820000     -30.99340000     -71.21420000
H      -44.46600000     -30.22490000     -71.99190000
H      -44.30010000     -31.95570000     -71.68650000
C      -45.96310000     -35.81990000     -70.25200000
H      -47.02910000     -36.06760000     -70.04720000
H      -45.57550000     -36.57260000     -70.85170000
C      -45.90490000     -34.47160000     -70.90390000
H      -46.09030000     -33.70250000     -70.18440000
H      -44.87320000     -34.23200000     -71.26820000
C      -46.10880000     -31.15700000     -71.05290000
H      -46.60110000     -30.28610000     -70.61430000
H      -46.32540000     -31.87780000     -70.27280000
C      -46.87490000     -31.61490000     -72.31860000
C      -47.53960000     -30.74620000     -73.18890000
C      -47.12580000     -32.98480000     -72.64420000
H      -47.33330000     -29.71510000     -73.34900000
C      -47.97250000     -33.17070000     -73.73490000
C      -46.86100000     -34.29010000     -72.07560000
C      -47.60480000     -35.30080000     -72.61230000
S      -48.34740000     -31.64850000     -74.45170000
S      -48.50890000     -34.78060000     -74.01730000
H      -47.55100000     -36.27280000     -72.26750000
