40
Properties=species:S:1:pos:R:3 #=T CELL(abcABC):=T 1.889726e+02=T 90.00000=T Traj:=T positionsangstrom=T Step:=T 0=T Bead:=T pbc="F F F"
C      -40.11810000     -33.58460000     -71.60680000
C      -41.52150000     -33.64240000     -71.80060000
C      -42.28590000     -32.98180000     -70.87410000
C      -41.70470000     -32.32180000     -69.78980000
C      -40.32090000     -32.38720000     -69.52900000
C      -39.54490000     -32.99170000     -70.48820000
H      -39.52430000     -34.07950000     -72.34010000
H      -43.32880000     -32.92280000     -71.06200000
H      -39.88800000     -32.09940000     -68.57660000
H      -38.42820000     -32.82870000     -70.39060000
C      -42.61250000     -31.45950000     -68.80780000
H      -42.07550000     -30.78150000     -68.18810000
H      -42.92150000     -32.12900000     -68.05410000
C      -42.10770000     -34.36620000     -73.01910000
H      -41.24550000     -34.53350000     -73.76040000
H      -42.43200000     -35.42320000     -72.80400000
S      -44.05360000     -30.66620000     -69.52790000
S      -43.50050000     -33.50150000     -73.89030000
C      -45.43910000     -31.89730000     -69.33170000
H      -44.98330000     -32.88350000     -69.03720000
H      -46.16230000     -31.67380000     -68.51160000
C      -44.88220000     -34.44480000     -73.23890000
H      -44.79710000     -34.61430000     -72.23790000
H      -44.95590000     -35.44820000     -73.63810000
C      -46.28140000     -33.74520000     -73.62970000
H      -46.16850000     -32.62260000     -73.41900000
H      -46.43450000     -33.82710000     -74.70830000
C      -46.29980000     -32.13770000     -70.61010000
H      -45.74180000     -32.46600000     -71.43720000
H      -46.85130000     -31.20290000     -70.94170000
C      -47.48440000     -33.07490000     -70.49950000
C      -48.36490000     -33.06670000     -69.43090000
C      -47.87000000     -33.96570000     -71.56950000
H      -48.42880000     -32.33490000     -68.60220000
C      -49.14700000     -34.56340000     -71.29510000
C      -47.44640000     -34.33200000     -72.95230000
C      -48.26610000     -35.23300000     -73.54790000
S      -49.82350000     -34.17590000     -69.77000000
S      -49.75480000     -35.53850000     -72.55430000
H      -48.16070000     -35.72180000     -74.49200000
