40
Properties=species:S:1:pos:R:3 #=T CELL(abcABC):=T 1.889726e+02=T 90.00000=T Traj:=T positionsangstrom=T Step:=T 0=T Bead:=T pbc="F F F"
C      -42.47530000     -34.48750000     -71.90490000
C      -42.39480000     -34.60350000     -70.52740000
C      -42.50750000     -33.42680000     -69.68910000
C      -42.74250000     -32.18480000     -70.25470000
C      -42.68120000     -32.09910000     -71.71880000
C      -42.50210000     -33.23310000     -72.48240000
H      -42.57020000     -35.35460000     -72.58290000
H      -42.39460000     -33.55590000     -68.59350000
H      -42.71150000     -31.15220000     -72.15870000
H      -42.54510000     -33.13330000     -73.58120000
C      -42.99460000     -30.92370000     -69.45330000
H      -42.81550000     -29.92370000     -69.95470000
H      -42.30500000     -31.01640000     -68.56090000
C      -42.34020000     -35.93850000     -69.82180000
H      -42.11460000     -36.69500000     -70.53280000
H      -41.62280000     -35.97250000     -68.99550000
S      -44.69060000     -30.71040000     -68.84790000
S      -43.95810000     -36.40530000     -69.03090000
C      -45.52860000     -31.06160000     -70.50170000
H      -45.55620000     -30.08730000     -71.06420000
H      -44.93460000     -31.80990000     -71.01000000
C      -45.07750000     -36.17110000     -70.48450000
H      -45.77480000     -37.02840000     -70.34600000
H      -44.41070000     -36.40510000     -71.39100000
C      -45.75940000     -34.84710000     -70.58210000
H      -46.38220000     -34.60490000     -69.72590000
H      -44.97900000     -34.05900000     -70.59080000
C      -46.93970000     -31.67710000     -70.16060000
H      -47.54190000     -31.00540000     -69.56080000
H      -46.73330000     -32.53070000     -69.57060000
C      -47.53760000     -32.03760000     -71.48680000
C      -48.26530000     -31.12780000     -72.28240000
C      -47.22020000     -33.30050000     -72.21640000
H      -48.60070000     -30.22160000     -71.81070000
C      -47.68960000     -33.28130000     -73.53500000
C      -46.55080000     -34.55630000     -71.85940000
C      -46.59820000     -35.47140000     -72.88930000
S      -48.51730000     -31.78530000     -73.88640000
S      -47.43720000     -34.78770000     -74.33530000
H      -46.21890000     -36.42240000     -72.81450000
