40
Properties=species:S:1:pos:R:3 #=T CELL(abcABC):=T 1.889726e+02=T 90.00000=T Traj:=T positionsangstrom=T Step:=T 0=T Bead:=T pbc="F F F"
C      -42.32500000     -34.22800000     -71.87150000
C      -42.44960000     -34.46650000     -70.49390000
C      -42.74450000     -33.39250000     -69.63400000
C      -42.74720000     -32.07620000     -70.13790000
C      -42.64900000     -31.87630000     -71.51930000
C      -42.47940000     -32.98630000     -72.38410000
H      -42.03250000     -35.01140000     -72.54590000
H      -42.81620000     -33.67550000     -68.57210000
H      -42.71050000     -30.86190000     -71.93630000
H      -42.44080000     -32.87480000     -73.45050000
C      -42.83970000     -30.89950000     -69.24110000
H      -42.47670000     -30.01720000     -69.64190000
H      -42.25770000     -31.04390000     -68.37340000
C      -42.24270000     -35.85110000     -69.95330000
H      -41.88430000     -36.55530000     -70.74940000
H      -41.61010000     -35.76430000     -69.00990000
S      -44.62720000     -30.68010000     -68.70430000
S      -43.88700000     -36.60430000     -69.38550000
C      -45.58780000     -30.98530000     -70.24790000
H      -45.68540000     -30.00290000     -70.80830000
H      -45.03170000     -31.56330000     -70.93080000
C      -45.08680000     -36.21800000     -70.76510000
H      -45.63370000     -37.13770000     -70.93030000
H      -44.57820000     -35.93950000     -71.69340000
C      -46.08690000     -35.05940000     -70.51600000
H      -46.77970000     -35.40860000     -69.76370000
H      -45.44750000     -34.33490000     -70.02620000
C      -47.03620000     -31.63150000     -70.14040000
H      -47.76160000     -30.96620000     -69.64670000
H      -47.01060000     -32.53570000     -69.49080000
C      -47.52610000     -32.03410000     -71.51880000
C      -48.20030000     -31.13830000     -72.35770000
C      -47.22240000     -33.31860000     -72.15400000
H      -48.36110000     -30.09110000     -72.06370000
C      -47.69010000     -33.34410000     -73.45410000
C      -46.65490000     -34.59310000     -71.82770000
C      -46.62130000     -35.45240000     -72.91610000
S      -48.53850000     -31.88310000     -73.92970000
S      -47.38950000     -34.87460000     -74.35700000
H      -46.22690000     -36.40490000     -72.98010000
