40
Properties=species:S:1:pos:R:3 #=T CELL(abcABC):=T 1.889726e+02=T 90.00000=T Traj:=T positionsangstrom=T Step:=T 0=T Bead:=T pbc="F F F"
C      -42.32570000     -34.09080000     -71.92420000
C      -42.54330000     -34.37470000     -70.57010000
C      -42.66560000     -33.34180000     -69.64940000
C      -42.63180000     -31.97630000     -70.03260000
C      -42.37660000     -31.73430000     -71.40230000
C      -42.26380000     -32.77460000     -72.36250000
H      -42.28090000     -34.93180000     -72.61430000
H      -42.88490000     -33.58650000     -68.60540000
H      -42.31620000     -30.71130000     -71.83560000
H      -42.10740000     -32.60550000     -73.40570000
C      -42.96770000     -30.85700000     -69.08960000
H      -42.67740000     -29.89610000     -69.67350000
H      -42.37170000     -30.91140000     -68.12830000
C      -42.40920000     -35.85570000     -70.03810000
H      -41.92420000     -36.44430000     -70.79850000
H      -41.64960000     -35.87930000     -69.32200000
S      -44.80900000     -30.77790000     -68.62690000
S      -43.90420000     -36.72140000     -69.44600000
C      -45.70190000     -30.86610000     -70.21660000
H      -46.04400000     -29.90130000     -70.53680000
H      -45.08650000     -31.33200000     -70.99300000
C      -45.02380000     -36.37910000     -70.88680000
H      -45.66400000     -37.26130000     -70.89740000
H      -44.37480000     -36.42930000     -71.76030000
C      -45.84990000     -35.04350000     -70.72330000
H      -46.53910000     -35.07650000     -69.89480000
H      -45.30180000     -34.09230000     -70.51650000
C      -46.95090000     -31.82420000     -70.05140000
H      -47.79400000     -31.42190000     -69.45460000
H      -46.62750000     -32.71790000     -69.55450000
C      -47.36150000     -32.12150000     -71.44310000
C      -48.09640000     -31.22190000     -72.20330000
C      -47.24230000     -33.36370000     -72.15950000
H      -48.30340000     -30.17780000     -71.95100000
C      -47.68430000     -33.33410000     -73.49750000
C      -46.66290000     -34.72190000     -71.96820000
C      -46.74910000     -35.53990000     -73.04650000
S      -48.47200000     -31.84620000     -73.78350000
S      -47.52630000     -34.75290000     -74.45600000
H      -46.37290000     -36.56800000     -73.13710000
