40
Properties=species:S:1:pos:R:3 #=T CELL(abcABC):=T 1.889726e+02=T 90.00000=T Traj:=T positionsangstrom=T Step:=T 0=T Bead:=T pbc="F F F"
C      -41.73620000     -33.72070000     -71.67480000
C      -42.29020000     -34.25480000     -70.45230000
C      -42.59630000     -33.28860000     -69.44530000
C      -42.68630000     -31.93090000     -69.72190000
C      -42.23240000     -31.43490000     -70.95070000
C      -41.67990000     -32.31310000     -71.92240000
H      -41.30750000     -34.38020000     -72.41790000
H      -43.05690000     -33.63230000     -68.48260000
H      -42.30640000     -30.34080000     -71.03520000
H      -41.41350000     -31.81720000     -72.86970000
C      -43.13990000     -30.97470000     -68.68330000
H      -43.03010000     -30.00230000     -69.10330000
H      -42.63200000     -31.01720000     -67.75250000
C      -42.33930000     -35.72290000     -70.20490000
H      -41.94460000     -36.26690000     -71.09860000
H      -41.61560000     -35.98090000     -69.40710000
S      -44.98820000     -31.02080000     -68.31130000
S      -43.90480000     -36.51270000     -69.66150000
C      -45.86420000     -30.89230000     -70.02700000
H      -46.51410000     -30.04300000     -69.89030000
H      -45.06370000     -30.73660000     -70.76670000
C      -44.96480000     -36.48110000     -71.16260000
H      -45.62380000     -37.32090000     -71.05540000
H      -44.30340000     -36.64940000     -72.02020000
C      -45.69090000     -35.05740000     -71.17880000
H      -46.23320000     -35.07050000     -70.20580000
H      -44.83090000     -34.34510000     -71.07280000
C      -46.51220000     -32.18970000     -70.30930000
H      -47.22960000     -32.43410000     -69.52400000
H      -45.79730000     -32.99720000     -70.31690000
C      -47.25550000     -32.28990000     -71.60060000
C      -48.19560000     -31.42420000     -72.13990000
C      -47.12100000     -33.42170000     -72.49020000
H      -48.39290000     -30.47130000     -71.74460000
C      -47.91990000     -33.35770000     -73.65670000
C      -46.54800000     -34.72450000     -72.33050000
C      -46.76080000     -35.48300000     -73.42550000
S      -48.67030000     -31.85220000     -73.79440000
S      -47.97110000     -34.88350000     -74.53330000
H      -46.35970000     -36.47630000     -73.36550000
