40
Properties=species:S:1:pos:R:3 #=T CELL(abcABC):=T 1.889726e+02=T 90.00000=T Traj:=T positionsangstrom=T Step:=T 0=T Bead:=T pbc="F F F"
C      -41.75210000     -33.58650000     -71.67680000
C      -42.15310000     -34.15960000     -70.44990000
C      -42.78780000     -33.30000000     -69.52640000
C      -42.82480000     -31.89890000     -69.69030000
C      -42.32300000     -31.36730000     -70.88810000
C      -41.86540000     -32.22920000     -71.92470000
H      -41.35810000     -34.29790000     -72.44300000
H      -43.21860000     -33.73630000     -68.58250000
H      -42.40980000     -30.26060000     -71.02580000
H      -41.46370000     -31.93430000     -72.88170000
C      -43.25610000     -30.98940000     -68.55290000
H      -42.80080000     -30.00510000     -68.58770000
H      -42.82200000     -31.45050000     -67.62070000
C      -42.12000000     -35.67570000     -70.22580000
H      -41.73690000     -36.21450000     -71.10030000
H      -41.54370000     -35.93580000     -69.30980000
S      -45.14330000     -31.00880000     -68.29090000
S      -43.68250000     -36.67630000     -69.88180000
C      -45.78390000     -30.96710000     -70.05090000
H      -46.24680000     -30.00490000     -70.32680000
H      -44.90090000     -31.04660000     -70.65960000
C      -44.72620000     -36.24140000     -71.30960000
H      -45.45660000     -37.06650000     -71.28000000
H      -44.16390000     -36.33910000     -72.22150000
C      -45.43570000     -34.93260000     -71.12350000
H      -45.84160000     -35.05030000     -70.09180000
H      -44.69080000     -34.08230000     -71.19130000
C      -46.77730000     -32.09200000     -70.18660000
H      -47.65410000     -31.82770000     -69.61450000
H      -46.42600000     -33.06810000     -69.79010000
C      -47.34920000     -32.25140000     -71.62540000
C      -48.14940000     -31.33350000     -72.27490000
C      -47.24490000     -33.49980000     -72.38310000
H      -48.44490000     -30.42870000     -71.70270000
C      -47.98040000     -33.47120000     -73.54490000
C      -46.41860000     -34.69820000     -72.25040000
C      -46.65940000     -35.53630000     -73.31850000
S      -48.69800000     -31.86930000     -73.84220000
S      -47.99030000     -35.01290000     -74.43600000
H      -46.23750000     -36.47450000     -73.37030000
