40
Properties=species:S:1:pos:R:3 #=T CELL(abcABC):=T 1.889726e+02=T 90.00000=T Traj:=T positionsangstrom=T Step:=T 0=T Bead:=T pbc="F F F"
C      -41.86910000     -33.64650000     -71.67960000
C      -42.00980000     -34.19620000     -70.40010000
C      -42.49500000     -33.34910000     -69.34630000
C      -42.75360000     -31.97460000     -69.60170000
C      -42.44030000     -31.40350000     -70.81550000
C      -42.02000000     -32.26960000     -71.87500000
H      -41.44700000     -34.23030000     -72.55080000
H      -42.78120000     -33.83810000     -68.48010000
H      -42.48250000     -30.35770000     -70.92520000
H      -41.91170000     -31.86720000     -72.88740000
C      -43.27950000     -31.04010000     -68.50010000
H      -42.81150000     -30.09120000     -68.73030000
H      -43.04570000     -31.37780000     -67.49430000
C      -41.86860000     -35.69600000     -70.20690000
H      -41.31690000     -36.08770000     -71.07060000
H      -41.22120000     -35.92480000     -69.37500000
S      -45.03860000     -30.79990000     -68.46830000
S      -43.50940000     -36.48370000     -69.93730000
C      -45.73020000     -31.24250000     -70.17840000
H      -46.09410000     -30.34370000     -70.78580000
H      -44.88240000     -31.75010000     -70.69980000
C      -44.55060000     -36.19410000     -71.43500000
H      -44.99580000     -37.17750000     -71.68140000
H      -43.99280000     -35.88820000     -72.36280000
C      -45.61380000     -35.20270000     -71.07410000
H      -46.04610000     -35.35850000     -70.09740000
H      -45.02400000     -34.27710000     -70.93360000
C      -46.96900000     -32.14250000     -70.17690000
H      -47.58730000     -31.65380000     -69.44900000
H      -46.67880000     -33.12170000     -69.80260000
C      -47.47900000     -32.32160000     -71.61150000
C      -48.27620000     -31.37360000     -72.19080000
C      -47.26090000     -33.52460000     -72.39690000
H      -48.52120000     -30.43730000     -71.60250000
C      -47.92130000     -33.40980000     -73.60850000
C      -46.63090000     -34.82470000     -72.14340000
C      -46.89350000     -35.65590000     -73.18940000
S      -48.87730000     -31.86580000     -73.73810000
S      -47.92280000     -34.91640000     -74.50920000
H      -46.44910000     -36.64560000     -73.26840000
