40
Properties=species:S:1:pos:R:3 #=T CELL(abcABC):=T 1.889726e+02=T 90.00000=T Traj:=T positionsangstrom=T Step:=T 0=T Bead:=T pbc="F F F"
C      -41.68560000     -31.66370000     -73.09130000
C      -42.04100000     -33.02610000     -73.02910000
C      -43.18330000     -33.40250000     -73.75380000
C      -43.85620000     -32.53830000     -74.56420000
C      -43.46910000     -31.20880000     -74.59090000
C      -42.38730000     -30.73840000     -73.85740000
H      -40.73560000     -31.42850000     -72.63170000
H      -43.55070000     -34.45400000     -73.79850000
H      -44.13080000     -30.55680000     -75.19390000
H      -42.02860000     -29.69080000     -73.83340000
C      -45.03730000     -33.10950000     -75.40870000
H      -44.80500000     -34.14920000     -75.34590000
H      -45.05330000     -32.70810000     -76.41990000
C      -41.18390000     -34.01160000     -72.36200000
H      -40.73140000     -34.63880000     -73.09540000
H      -40.47380000     -33.41550000     -71.85980000
S      -46.72020000     -32.90290000     -74.69940000
S      -42.05450000     -35.18800000     -71.19220000
C      -46.48040000     -33.05960000     -72.81440000
H      -45.43220000     -33.52300000     -72.83320000
H      -46.37310000     -32.01040000     -72.44950000
C      -43.34930000     -34.12710000     -70.34530000
H      -43.57900000     -33.35000000     -71.07070000
H      -43.03230000     -33.57110000     -69.39390000
C      -44.62160000     -34.88530000     -70.03630000
H      -45.05240000     -35.11540000     -71.03740000
H      -44.42570000     -35.90860000     -69.58320000
C      -47.40810000     -34.03360000     -72.12220000
H      -47.04660000     -35.08570000     -72.09350000
H      -48.33860000     -34.14100000     -72.66520000
C      -47.71160000     -33.70530000     -70.70280000
C      -48.89070000     -33.04790000     -70.47540000
C      -46.96120000     -33.86140000     -69.46550000
H      -49.63220000     -32.71560000     -71.21720000
C      -47.70630000     -33.45310000     -68.36230000
C      -45.62190000     -34.38000000     -69.04280000
C      -45.35690000     -34.11710000     -67.69070000
S      -49.33760000     -32.94160000     -68.73880000
S      -46.84620000     -33.42560000     -66.87070000
H      -44.65090000     -34.57110000     -67.09600000
