40
Properties=species:S:1:pos:R:3 #=T CELL(abcABC):=T 1.889726e+02=T 90.00000=T Traj:=T positionsangstrom=T Step:=T 0=T Bead:=T pbc="F F F"
C      -40.91110000     -33.99450000     -71.20720000
C      -41.91140000     -34.29270000     -70.20830000
C      -42.50440000     -33.21850000     -69.51380000
C      -42.29320000     -31.85840000     -69.88650000
C      -41.34510000     -31.57240000     -70.89300000
C      -40.70960000     -32.67020000     -71.53470000
H      -40.28000000     -34.65740000     -71.64450000
H      -43.27100000     -33.44930000     -68.70870000
H      -41.03700000     -30.56130000     -71.14320000
H      -39.98950000     -32.55300000     -72.23840000
C      -42.95840000     -30.69660000     -69.20830000
H      -42.63070000     -29.74910000     -69.68040000
H      -42.67520000     -30.66130000     -68.15400000
C      -42.14410000     -35.74070000     -69.83630000
H      -41.71190000     -36.46760000     -70.51630000
H      -41.76180000     -35.91940000     -68.80000000
S      -44.81860000     -30.60820000     -69.03940000
S      -43.92720000     -36.25460000     -69.66400000
C      -45.56960000     -31.53410000     -70.49600000
H      -45.50730000     -30.79960000     -71.27690000
H      -44.87580000     -32.35980000     -70.80920000
C      -44.70920000     -35.40050000     -71.05970000
H      -44.61280000     -36.00620000     -71.92930000
H      -44.21420000     -34.48880000     -71.16020000
C      -46.27720000     -35.33290000     -70.81590000
H      -46.47100000     -36.32870000     -70.66510000
H      -46.60940000     -34.65340000     -70.02120000
C      -47.03240000     -31.97230000     -70.28210000
H      -47.57130000     -31.08140000     -69.87180000
H      -47.17850000     -32.67510000     -69.38900000
C      -47.73580000     -32.39520000     -71.52190000
C      -48.63990000     -31.51580000     -72.09890000
C      -47.59130000     -33.59590000     -72.31980000
H      -48.99000000     -30.53310000     -71.76980000
C      -48.20060000     -33.46340000     -73.60850000
C      -46.93930000     -34.88680000     -72.13530000
C      -47.19020000     -35.74670000     -73.20010000
S      -49.21500000     -32.12530000     -73.64570000
S      -47.94640000     -34.94410000     -74.56720000
H      -46.78010000     -36.73330000     -73.22910000
