40
Properties=species:S:1:pos:R:3 #=T CELL(abcABC):=T 1.889726e+02=T 90.00000=T Traj:=T positionsangstrom=T Step:=T 0=T Bead:=T pbc="F F F"
C      -40.83990000     -34.21630000     -70.96730000
C      -41.82740000     -34.34570000     -69.97670000
C      -42.42260000     -33.24620000     -69.32260000
C      -42.29430000     -32.00490000     -69.98910000
C      -41.54670000     -31.88340000     -71.21790000
C      -40.73410000     -32.96340000     -71.65570000
H      -40.31700000     -35.17500000     -71.17230000
H      -43.13100000     -33.32360000     -68.50830000
H      -41.53780000     -30.91710000     -71.71830000
H      -40.21650000     -32.77640000     -72.61020000
C      -42.94890000     -30.81960000     -69.37700000
H      -42.89240000     -29.89280000     -69.98340000
H      -42.37580000     -30.57940000     -68.52720000
C      -42.29780000     -35.70320000     -69.45600000
H      -41.75490000     -36.54940000     -69.90850000
H      -42.15150000     -35.70680000     -68.35790000
S      -44.76290000     -31.11060000     -68.88960000
S      -44.06560000     -35.94310000     -69.46810000
C      -45.49860000     -31.47910000     -70.51360000
H      -45.34360000     -30.61490000     -71.18210000
H      -45.04270000     -32.35980000     -70.93800000
C      -44.71000000     -35.62560000     -71.13170000
H      -44.91000000     -36.60800000     -71.68410000
H      -44.06000000     -35.01910000     -71.82480000
C      -46.05140000     -34.99740000     -71.01330000
H      -46.62240000     -35.74050000     -70.39620000
H      -45.87010000     -34.14520000     -70.32920000
C      -47.01410000     -31.76640000     -70.39170000
H      -47.58030000     -30.87460000     -70.03500000
H      -47.22570000     -32.39830000     -69.54930000
C      -47.57450000     -32.18620000     -71.71760000
C      -48.38020000     -31.29580000     -72.35540000
C      -47.45480000     -33.41410000     -72.47270000
H      -48.59950000     -30.27760000     -71.96820000
C      -48.16970000     -33.43360000     -73.63030000
C      -46.82640000     -34.66510000     -72.25940000
C      -47.27560000     -35.67350000     -73.05650000
S      -49.06610000     -31.91530000     -73.89050000
S      -48.29610000     -35.02600000     -74.39640000
H      -47.00260000     -36.72110000     -72.88150000
