40
Properties=species:S:1:pos:R:3 #=T CELL(abcABC):=T 1.889726e+02=T 90.00000=T Traj:=T positionsangstrom=T Step:=T 0=T Bead:=T pbc="F F F"
C      -41.19260000     -34.33260000     -71.20740000
C      -42.04830000     -34.39310000     -70.10940000
C      -42.54060000     -33.30940000     -69.41970000
C      -42.22980000     -32.04200000     -69.89690000
C      -41.34200000     -31.85870000     -71.01570000
C      -40.88090000     -33.04330000     -71.66690000
H      -40.88240000     -35.19590000     -71.72250000
H      -43.21220000     -33.49110000     -68.52780000
H      -41.13510000     -30.80880000     -71.28650000
H      -40.20760000     -32.96380000     -72.55300000
C      -42.89410000     -30.81800000     -69.45770000
H      -42.80080000     -29.97370000     -70.20960000
H      -42.33970000     -30.45380000     -68.56060000
C      -42.27210000     -35.73090000     -69.44840000
H      -41.73560000     -36.49870000     -69.90800000
H      -41.93690000     -35.71580000     -68.37920000
S      -44.64820000     -31.06270000     -68.97230000
S      -44.08910000     -36.07140000     -69.36650000
C      -45.35760000     -31.52200000     -70.61810000
H      -45.13980000     -30.75180000     -71.38200000
H      -44.98110000     -32.51510000     -70.89990000
C      -44.79070000     -35.43040000     -70.94880000
H      -44.57540000     -36.21070000     -71.66040000
H      -44.29180000     -34.54230000     -71.20850000
C      -46.21150000     -35.05120000     -70.73570000
H      -46.83690000     -35.78130000     -70.26530000
H      -46.23040000     -34.23440000     -70.00990000
C      -46.92910000     -31.65780000     -70.39400000
H      -47.33080000     -30.75070000     -69.96170000
H      -47.06340000     -32.47020000     -69.70020000
C      -47.62610000     -32.06500000     -71.72620000
C      -48.37030000     -31.21350000     -72.55380000
C      -47.68690000     -33.40950000     -72.35580000
H      -48.57050000     -30.21630000     -72.33960000
C      -48.41490000     -33.47430000     -73.55190000
C      -46.92340000     -34.67290000     -72.05640000
C      -47.16340000     -35.59540000     -73.02080000
S      -48.97750000     -31.91530000     -74.07790000
S      -48.11950000     -34.99990000     -74.34370000
H      -46.69570000     -36.56500000     -73.14200000
