40
Properties=species:S:1:pos:R:3 #=T CELL(abcABC):=T 1.889726e+02=T 90.00000=T Traj:=T positionsangstrom=T Step:=T 0=T Bead:=T pbc="F F F"
C      -41.15310000     -34.34980000     -71.29300000
C      -42.01560000     -34.45750000     -70.16020000
C      -42.47100000     -33.34310000     -69.47560000
C      -42.15490000     -32.03940000     -69.96720000
C      -41.27270000     -31.88840000     -71.10750000
C      -40.76030000     -33.10900000     -71.76440000
H      -40.80970000     -35.20540000     -71.89840000
H      -43.14250000     -33.37700000     -68.62660000
H      -41.10190000     -30.86180000     -71.41100000
H      -40.09290000     -33.13680000     -72.67940000
C      -42.85970000     -30.89050000     -69.28150000
H      -42.67900000     -29.99040000     -69.77910000
H      -42.57780000     -30.86110000     -68.21600000
C      -42.43130000     -35.88600000     -69.74000000
H      -42.19190000     -36.59740000     -70.58650000
H      -41.83350000     -36.25830000     -68.93130000
S      -44.69330000     -30.99140000     -69.07760000
S      -44.20780000     -36.21810000     -69.22330000
C      -45.37600000     -31.53250000     -70.66330000
H      -45.04200000     -30.88880000     -71.46840000
H      -44.90030000     -32.50040000     -70.94630000
C      -44.98910000     -35.31360000     -70.63980000
H      -44.83440000     -35.97150000     -71.54870000
H      -44.38600000     -34.42620000     -70.89850000
C      -46.47810000     -35.10180000     -70.58700000
H      -46.89880000     -36.08550000     -70.36360000
H      -46.70720000     -34.37630000     -69.75250000
C      -46.92590000     -31.41190000     -70.52520000
H      -47.07120000     -30.36720000     -70.44170000
H      -47.38820000     -31.97940000     -69.63450000
C      -47.56680000     -32.01210000     -71.75790000
C      -48.27630000     -31.11390000     -72.61080000
C      -47.40450000     -33.29430000     -72.34370000
H      -48.48100000     -30.11070000     -72.36590000
C      -48.08610000     -33.36480000     -73.56260000
C      -47.03680000     -34.65990000     -71.92830000
C      -47.28610000     -35.61080000     -72.88270000
S      -48.97020000     -31.93660000     -74.05480000
S      -48.04610000     -34.97730000     -74.33980000
H      -47.11560000     -36.65340000     -72.95320000
