40
Properties=species:S:1:pos:R:3 #=T CELL(abcABC):=T 1.889726e+02=T 90.00000=T Traj:=T positionsangstrom=T Step:=T 0=T Bead:=T pbc="F F F"
C      -41.23110000     -34.42020000     -71.30530000
C      -42.05690000     -34.59020000     -70.16760000
C      -42.60920000     -33.46670000     -69.48630000
C      -42.32730000     -32.14400000     -69.97490000
C      -41.55150000     -31.98000000     -71.14830000
C      -41.00070000     -33.08630000     -71.79430000
H      -40.79270000     -35.26870000     -71.80960000
H      -43.11880000     -33.55960000     -68.56610000
H      -41.23270000     -30.94440000     -71.53060000
H      -40.39860000     -32.87070000     -72.64290000
C      -42.89070000     -30.85920000     -69.23750000
H      -42.61240000     -29.91870000     -69.73490000
H      -42.52220000     -30.79310000     -68.26960000
C      -42.36500000     -35.91190000     -69.56500000
H      -41.99630000     -36.64930000     -70.20150000
H      -41.75380000     -35.97300000     -68.60630000
S      -44.67800000     -30.86650000     -68.95530000
S      -44.16640000     -36.22500000     -69.17960000
C      -45.41810000     -31.06590000     -70.62110000
H      -45.43900000     -30.04820000     -71.15000000
H      -44.91790000     -31.82380000     -71.20490000
C      -44.99760000     -35.93870000     -70.91110000
H      -45.52010000     -36.85500000     -71.19030000
H      -44.07750000     -35.68770000     -71.52770000
C      -46.13160000     -34.90600000     -70.68120000
H      -46.71520000     -35.34150000     -69.82530000
H      -45.68960000     -33.99220000     -70.27320000
C      -46.90840000     -31.44790000     -70.51080000
H      -47.34700000     -30.50930000     -70.11650000
H      -47.12830000     -32.26090000     -69.84940000
C      -47.40260000     -31.93310000     -71.85860000
C      -47.87550000     -31.08400000     -72.81540000
C      -47.49720000     -33.32720000     -72.35190000
H      -47.96200000     -29.97300000     -72.64380000
C      -48.12610000     -33.40870000     -73.56950000
C      -47.05780000     -34.65930000     -71.96210000
C      -47.37440000     -35.65190000     -72.87300000
S      -48.61330000     -31.82610000     -74.20790000
S      -48.38530000     -35.03220000     -74.16730000
H      -47.09520000     -36.71980000     -72.79200000
