40
Properties=species:S:1:pos:R:3 #=T CELL(abcABC):=T 1.889726e+02=T 90.00000=T Traj:=T positionsangstrom=T Step:=T 0=T Bead:=T pbc="F F F"
C      -41.72660000     -34.27160000     -71.49320000
C      -42.39380000     -34.50570000     -70.23980000
C      -42.67050000     -33.38860000     -69.43850000
C      -42.30780000     -32.07000000     -69.82680000
C      -41.74820000     -31.86040000     -71.08360000
C      -41.39690000     -32.98650000     -71.81650000
H      -41.25560000     -35.06760000     -72.06370000
H      -43.19520000     -33.62530000     -68.55670000
H      -41.43000000     -30.88180000     -71.43370000
H      -40.96820000     -32.92080000     -72.83480000
C      -42.78000000     -30.88830000     -69.01080000
H      -42.42170000     -29.99160000     -69.43850000
H      -42.42020000     -30.91490000     -68.02140000
C      -42.56820000     -35.92160000     -69.67280000
H      -42.25400000     -36.69730000     -70.46020000
H      -41.95410000     -36.04590000     -68.82520000
S      -44.60130000     -30.77490000     -69.00240000
S      -44.32960000     -36.29460000     -68.98620000
C      -45.15010000     -31.11130000     -70.71610000
H      -44.85660000     -30.31190000     -71.42300000
H      -44.66110000     -32.03710000     -71.01640000
C      -45.39070000     -36.13830000     -70.50160000
H      -46.18500000     -36.87530000     -70.28340000
H      -44.93370000     -36.34870000     -71.51730000
C      -46.03800000     -34.71380000     -70.66830000
H      -46.78950000     -34.54620000     -69.89340000
H      -45.23900000     -33.99970000     -70.56950000
C      -46.69130000     -31.35980000     -70.72760000
H      -47.27270000     -30.50700000     -70.53860000
H      -46.99630000     -31.96220000     -69.84800000
C      -47.20420000     -31.94720000     -72.04280000
C      -47.78160000     -31.08730000     -72.95860000
C      -47.26830000     -33.33900000     -72.43160000
H      -47.91790000     -29.98460000     -72.91550000
C      -48.06990000     -33.45070000     -73.61910000
C      -46.78030000     -34.65230000     -71.97120000
C      -47.24710000     -35.67190000     -72.80260000
S      -48.60180000     -31.94440000     -74.25390000
S      -48.11490000     -35.12270000     -74.18460000
H      -47.11190000     -36.69290000     -72.69620000
