40
Properties=species:S:1:pos:R:3 #=T CELL(abcABC):=T 1.889726e+02=T 90.00000=T Traj:=T positionsangstrom=T Step:=T 0=T Bead:=T pbc="F F F"
C      -45.12320000     -33.84280000     -69.07450000
C      -46.44080000     -33.42030000     -69.24780000
C      -47.36010000     -34.30230000     -69.85580000
C      -47.01690000     -35.58900000     -70.33770000
C      -45.65520000     -36.02030000     -70.20060000
C      -44.73330000     -35.16980000     -69.52450000
H      -44.44350000     -33.11540000     -68.64230000
H      -48.42600000     -33.98720000     -69.79230000
H      -45.32170000     -37.00640000     -70.53030000
H      -43.69740000     -35.49360000     -69.39840000
C      -47.98180000     -36.59950000     -70.97490000
H      -48.92580000     -36.56300000     -70.40680000
H      -47.58820000     -37.61490000     -70.94720000
C      -46.96450000     -32.03280000     -68.78060000
H      -47.86260000     -31.74040000     -69.25490000
H      -47.11360000     -32.03360000     -67.75200000
S      -48.42110000     -36.11630000     -72.73880000
S      -45.80540000     -30.60020000     -69.00740000
C      -46.79370000     -35.42450000     -73.42770000
H      -46.11880000     -36.17630000     -73.15950000
H      -46.82820000     -35.57350000     -74.49830000
C      -46.37680000     -29.92300000     -70.63970000
H      -45.86420000     -28.94460000     -70.69470000
H      -47.45580000     -29.80260000     -70.54270000
C      -46.09220000     -30.84570000     -71.86460000
H      -46.82020000     -31.67430000     -71.76380000
H      -46.34760000     -30.30990000     -72.83990000
C      -46.39740000     -33.97210000     -73.02300000
H      -46.93950000     -33.65890000     -72.11300000
H      -46.69300000     -33.24810000     -73.80620000
C      -44.86730000     -33.90680000     -72.82600000
C      -43.85050000     -34.87270000     -73.18410000
C      -44.24600000     -32.65300000     -72.41220000
H      -44.08240000     -35.91650000     -73.57980000
C      -42.87900000     -32.87230000     -72.20840000
C      -44.68570000     -31.37550000     -71.93320000
C      -43.64980000     -30.65760000     -71.43620000
S      -42.21960000     -34.34690000     -72.83160000
S      -42.10220000     -31.43490000     -71.60900000
H      -43.71410000     -29.62840000     -71.09370000
