40
Properties=species:S:1:pos:R:3 #=T CELL(abcABC):=T 1.889726e+02=T 90.00000=T Traj:=T positionsangstrom=T Step:=T 0=T Bead:=T pbc="F F F"
C      -48.04330000     -35.91530000     -71.97990000
C      -47.16820000     -35.91130000     -70.81780000
C      -47.21930000     -34.81940000     -69.96270000
C      -48.35130000     -33.90080000     -69.95270000
C      -49.31650000     -34.05030000     -70.92400000
C      -49.14950000     -34.99410000     -71.93510000
H      -48.00740000     -36.77310000     -72.67800000
H      -46.48630000     -34.70470000     -69.23890000
H      -50.17230000     -33.34320000     -70.87320000
H      -49.82080000     -34.96250000     -72.69780000
C      -48.33940000     -32.90320000     -68.79280000
H      -48.30310000     -33.37950000     -67.80300000
H      -49.27040000     -32.34330000     -68.82660000
C      -46.05290000     -36.84190000     -70.74610000
H      -45.62180000     -36.86590000     -69.72370000
H      -46.45780000     -37.83020000     -71.05470000
S      -46.89840000     -31.75470000     -68.70960000
S      -44.73520000     -36.19550000     -71.82660000
C      -47.02800000     -30.83500000     -70.31190000
H      -48.06800000     -30.58800000     -70.57210000
H      -46.54780000     -29.87810000     -70.09730000
C      -45.20880000     -35.54800000     -73.48780000
H      -46.30050000     -35.79660000     -73.64200000
H      -44.50720000     -36.04670000     -74.16280000
C      -45.15270000     -34.01410000     -73.65570000
H      -45.45200000     -33.80160000     -74.67830000
H      -45.96770000     -33.61660000     -73.06750000
C      -46.24410000     -31.56920000     -71.35240000
H      -46.59230000     -31.14600000     -72.30870000
H      -46.51340000     -32.70750000     -71.32830000
C      -44.74780000     -31.49810000     -71.33750000
C      -44.09080000     -30.50140000     -70.68040000
C      -43.83380000     -32.34240000     -72.12130000
H      -44.57700000     -29.90730000     -69.94240000
C      -42.51490000     -32.12560000     -71.73340000
C      -43.90980000     -33.36010000     -73.25340000
C      -42.67190000     -33.77160000     -73.62850000
S      -42.37620000     -30.84400000     -70.61820000
S      -41.35110000     -32.98860000     -72.69580000
H      -42.49840000     -34.61260000     -74.26770000
