40
Properties=species:S:1:pos:R:3 #=T CELL(abcABC):=T 1.889726e+02=T 90.00000=T Traj:=T positionsangstrom=T Step:=T 0=T Bead:=T pbc="F F F"
C      -48.30590000     -35.78140000     -72.13240000
C      -47.49020000     -35.93110000     -71.04460000
C      -47.53570000     -35.03190000     -70.00220000
C      -48.38050000     -33.86840000     -70.05250000
C      -49.23600000     -33.75890000     -71.16690000
C      -49.16080000     -34.64720000     -72.21080000
H      -48.31790000     -36.37810000     -73.03620000
H      -46.79720000     -35.13560000     -69.20220000
H      -49.99110000     -32.93770000     -71.23280000
H      -49.83610000     -34.53320000     -72.98620000
C      -48.36920000     -32.93200000     -68.86830000
H      -48.26580000     -33.66440000     -68.00390000
H      -49.27770000     -32.36700000     -68.85240000
C      -46.56580000     -37.08180000     -70.99310000
H      -46.41990000     -37.48600000     -69.99300000
H      -46.79140000     -37.86520000     -71.62090000
S      -46.92130000     -31.74900000     -68.91980000
S      -44.80890000     -36.59510000     -71.49470000
C      -47.12060000     -31.01200000     -70.58240000
H      -48.12930000     -31.23050000     -70.84860000
H      -46.93290000     -29.99750000     -70.54210000
C      -44.78600000     -35.91320000     -73.21780000
H      -45.70060000     -36.29270000     -73.73620000
H      -43.96890000     -36.36020000     -73.75590000
C      -44.80160000     -34.39660000     -73.34140000
H      -44.72360000     -34.22680000     -74.43790000
H      -45.75250000     -33.95060000     -73.06560000
C      -46.17650000     -31.76220000     -71.56240000
H      -46.50590000     -31.48860000     -72.55390000
H      -46.33880000     -32.86080000     -71.59720000
C      -44.71210000     -31.53740000     -71.39270000
C      -44.21000000     -30.49320000     -70.68010000
C      -43.74150000     -32.42190000     -71.92810000
H      -44.82800000     -29.75990000     -70.22900000
C      -42.49210000     -31.85110000     -71.74290000
C      -43.61990000     -33.58220000     -72.70560000
C      -42.32670000     -33.90480000     -73.04990000
S      -42.46900000     -30.25460000     -70.89550000
S      -41.18890000     -32.71140000     -72.47330000
H      -41.86630000     -34.82760000     -73.39180000
