40
Properties=species:S:1:pos:R:3 #=T CELL(abcABC):=T 1.889726e+02=T 90.00000=T Traj:=T positionsangstrom=T Step:=T 0=T Bead:=T pbc="F F F"
C      -42.72900000     -35.47080000     -70.12010000
C      -43.20400000     -34.76930000     -68.97540000
C      -42.95170000     -33.37530000     -68.85970000
C      -42.20540000     -32.77010000     -69.85740000
C      -41.61180000     -33.51260000     -70.87440000
C      -41.91280000     -34.84980000     -71.02600000
H      -42.85490000     -36.51130000     -70.03560000
H      -43.10510000     -32.89780000     -67.93740000
H      -40.94710000     -32.94390000     -71.53970000
H      -41.38510000     -35.41460000     -71.75100000
C      -42.01810000     -31.35330000     -69.70440000
H      -41.29590000     -30.90230000     -70.39320000
H      -41.72480000     -31.12890000     -68.66520000
C      -43.92370000     -35.45440000     -67.88200000
H      -43.74960000     -36.47670000     -67.73910000
H      -43.71820000     -34.98390000     -66.84840000
S      -43.69120000     -30.42180000     -69.85940000
S      -45.82500000     -35.18830000     -68.12360000
C      -44.36790000     -31.23390000     -71.43060000
H      -43.95180000     -31.06560000     -72.49900000
H      -44.07450000     -32.32760000     -71.22590000
C      -46.06660000     -35.66660000     -69.97700000
H      -47.09370000     -36.07260000     -70.07470000
H      -45.43850000     -36.52450000     -70.18050000
C      -45.95160000     -34.40040000     -70.86460000
H      -46.17110000     -33.56860000     -70.18310000
H      -44.90880000     -34.23100000     -71.11090000
C      -45.94800000     -31.16370000     -71.46430000
H      -46.26030000     -30.12750000     -71.40880000
H      -46.23370000     -31.64850000     -70.55240000
C      -46.52990000     -31.84410000     -72.75050000
C      -46.75700000     -31.12570000     -73.90940000
C      -47.06880000     -33.14190000     -72.82800000
H      -46.30520000     -30.13780000     -74.17060000
C      -47.86590000     -33.29810000     -73.94240000
C      -46.80660000     -34.35400000     -72.12370000
C      -47.39350000     -35.47260000     -72.68010000
S      -47.85570000     -31.94290000     -75.05510000
S      -48.27740000     -34.99840000     -74.16330000
H      -47.41460000     -36.49690000     -72.25710000
