40
Properties=species:S:1:pos:R:3 #=T CELL(abcABC):=T 1.889726e+02=T 90.00000=T Traj:=T positionsangstrom=T Step:=T 0=T Bead:=T pbc="F F F"
C      -43.13340000     -31.39240000     -73.86720000
C      -42.75800000     -32.55530000     -73.21130000
C      -43.24250000     -33.82170000     -73.61180000
C      -44.28840000     -33.91400000     -74.48320000
C      -44.82070000     -32.70990000     -75.06860000
C      -44.23850000     -31.47690000     -74.75810000
H      -42.81920000     -30.42120000     -73.54550000
H      -42.70040000     -34.65120000     -73.22590000
H      -45.66400000     -32.80550000     -75.84730000
H      -44.59830000     -30.50530000     -75.23980000
C      -44.67300000     -35.25660000     -75.01780000
H      -43.83190000     -35.75790000     -75.47890000
H      -45.45240000     -35.13560000     -75.76470000
C      -41.47980000     -32.58840000     -72.37120000
H      -40.82300000     -33.31020000     -72.83500000
H      -40.97660000     -31.63260000     -72.24220000
S      -45.35340000     -36.44140000     -73.62810000
S      -41.80270000     -33.23150000     -70.65860000
C      -46.53700000     -35.27290000     -72.82070000
H      -46.87480000     -34.50900000     -73.52770000
H      -47.30200000     -35.94300000     -72.42370000
C      -43.30630000     -32.40650000     -70.04940000
H      -43.95500000     -32.25370000     -70.97200000
H      -43.01360000     -31.48550000     -69.62520000
C      -44.06310000     -33.34280000     -69.11720000
H      -44.15040000     -34.36120000     -69.50660000
H      -43.58530000     -33.27740000     -68.16320000
C      -45.95350000     -34.63640000     -71.59800000
H      -45.23560000     -33.78830000     -71.87330000
H      -45.27710000     -35.37820000     -71.02730000
C      -47.06310000     -34.06600000     -70.60020000
C      -48.40260000     -34.13530000     -70.74180000
C      -46.73670000     -33.34610000     -69.39740000
H      -48.85770000     -34.59640000     -71.60030000
C      -47.86810000     -32.76410000     -68.82090000
C      -45.50650000     -32.94510000     -68.73090000
C      -45.68080000     -31.97870000     -67.72320000
S      -49.36900000     -33.13330000     -69.60780000
S      -47.35170000     -31.54650000     -67.56020000
H      -44.99480000     -31.72180000     -66.93440000
