40
Properties=species:S:1:pos:R:3 #=T CELL(abcABC):=T 1.889726e+02=T 90.00000=T Traj:=T positionsangstrom=T Step:=T 0=T Bead:=T pbc="F F F"
C      -43.41180000     -31.47620000     -73.73700000
C      -42.69170000     -32.60340000     -73.22840000
C      -42.98570000     -33.89610000     -73.62400000
C      -44.03280000     -34.06940000     -74.58020000
C      -44.76140000     -32.92960000     -75.05170000
C      -44.38400000     -31.64870000     -74.72910000
H      -43.01060000     -30.47340000     -73.53160000
H      -42.46580000     -34.68220000     -73.19180000
H      -45.49500000     -33.21740000     -75.84830000
H      -44.86300000     -30.71980000     -75.08840000
C      -44.61700000     -35.40290000     -74.91480000
H      -43.76190000     -36.06640000     -75.15970000
H      -45.23080000     -35.39690000     -75.80880000
C      -41.57740000     -32.25280000     -72.24400000
H      -40.54570000     -32.43690000     -72.74080000
H      -41.55410000     -31.18450000     -71.99470000
S      -45.55100000     -36.41330000     -73.72130000
S      -41.67040000     -33.23310000     -70.65350000
C      -46.65970000     -35.28490000     -72.85020000
H      -46.97410000     -34.43780000     -73.42530000
H      -47.57350000     -35.85460000     -72.72540000
C      -43.24480000     -32.36590000     -69.99100000
H      -43.73680000     -32.04990000     -70.92170000
H      -42.97840000     -31.42600000     -69.43880000
C      -44.09090000     -33.22340000     -69.08420000
H      -44.07640000     -34.19930000     -69.56230000
H      -43.44610000     -33.27610000     -68.14410000
C      -46.03250000     -34.81050000     -71.53440000
H      -45.09040000     -34.30230000     -71.80130000
H      -45.62790000     -35.63980000     -71.02850000
C      -46.95250000     -34.03530000     -70.66140000
C      -48.28650000     -34.17550000     -70.74620000
C      -46.64600000     -33.18140000     -69.46670000
H      -48.87890000     -34.60490000     -71.52880000
C      -47.81860000     -32.72150000     -68.85820000
C      -45.43810000     -32.66010000     -68.78260000
C      -45.74500000     -31.74440000     -67.78100000
S      -49.26650000     -33.21920000     -69.58350000
S      -47.52280000     -31.54700000     -67.56670000
H      -45.02440000     -31.17290000     -67.13530000
