40
Properties=species:S:1:pos:R:3 #=T CELL(abcABC):=T 1.889726e+02=T 90.00000=T Traj:=T positionsangstrom=T Step:=T 0=T Bead:=T pbc="F F F"
C      -42.59110000     -35.76970000     -69.52930000
C      -43.53060000     -34.97210000     -68.86740000
C      -43.33580000     -33.56310000     -68.67330000
C      -42.39430000     -32.93320000     -69.50010000
C      -41.55850000     -33.74880000     -70.24810000
C      -41.51680000     -35.11970000     -70.19100000
H      -42.74790000     -36.85780000     -69.48650000
H      -43.97630000     -33.05830000     -67.99500000
H      -40.75230000     -33.20200000     -70.84710000
H      -40.82660000     -35.78010000     -70.68870000
C      -42.22590000     -31.38900000     -69.41140000
H      -41.24910000     -30.94130000     -69.78530000
H      -42.27130000     -30.97040000     -68.41400000
C      -44.62220000     -35.65990000     -68.13170000
H      -44.80630000     -36.65680000     -68.64050000
H      -44.30410000     -35.93540000     -67.10420000
S      -43.66680000     -30.54520000     -70.23750000
S      -46.30860000     -34.94510000     -67.96160000
C      -44.29220000     -31.44310000     -71.72070000
H      -43.81620000     -31.28910000     -72.64550000
H      -44.26520000     -32.50940000     -71.46110000
C      -46.94920000     -34.95470000     -69.65380000
H      -48.04650000     -34.93940000     -69.57520000
H      -46.75560000     -35.85050000     -70.22210000
C      -46.53110000     -33.78830000     -70.56770000
H      -47.23310000     -32.92360000     -70.33460000
H      -45.50530000     -33.44100000     -70.35740000
C      -45.72210000     -30.90970000     -71.95990000
H      -45.73690000     -29.80790000     -72.20790000
H      -46.32810000     -30.91520000     -71.05630000
C      -46.31200000     -31.58810000     -73.17640000
C      -46.74660000     -31.01940000     -74.34220000
C      -46.64780000     -33.04230000     -73.09180000
H      -46.69550000     -29.96460000     -74.57360000
C      -47.17430000     -33.48120000     -74.29660000
C      -46.81730000     -34.04220000     -71.99460000
C      -47.41890000     -35.22190000     -72.43900000
S      -47.39120000     -32.18540000     -75.43570000
S      -47.67300000     -35.17760000     -74.15540000
H      -47.91060000     -36.08060000     -72.01970000
