40
Properties=species:S:1:pos:R:3 #=T CELL(abcABC):=T 1.889726e+02=T 90.00000=T Traj:=T positionsangstrom=T Step:=T 0=T Bead:=T pbc="F F F"
C      -43.32900000     -35.82740000     -69.08230000
C      -44.01280000     -34.81130000     -68.43260000
C      -43.66900000     -33.39650000     -68.57440000
C      -42.62050000     -33.09910000     -69.44030000
C      -41.90480000     -34.17400000     -70.09340000
C      -42.27900000     -35.50530000     -69.89790000
H      -43.68880000     -36.84340000     -68.90180000
H      -44.17800000     -32.63990000     -68.05080000
H      -40.98350000     -34.04480000     -70.67790000
H      -41.66670000     -36.26030000     -70.29220000
C      -42.17940000     -31.74830000     -69.68310000
H      -41.50950000     -31.67180000     -70.58770000
H      -41.60540000     -31.27430000     -68.83870000
C      -45.12830000     -35.05280000     -67.50040000
H      -45.33160000     -36.13460000     -67.33950000
H      -44.83740000     -34.61580000     -66.50270000
S      -43.59090000     -30.59360000     -70.07830000
S      -46.85500000     -34.26930000     -67.95580000
C      -44.20200000     -31.37680000     -71.63770000
H      -43.55110000     -31.26330000     -72.50310000
H      -44.17670000     -32.49640000     -71.52360000
C      -47.04900000     -34.96060000     -69.70480000
H      -48.08820000     -35.24980000     -69.81560000
H      -46.50060000     -35.91810000     -69.75600000
C      -46.44380000     -33.94780000     -70.68500000
H      -46.60230000     -32.92120000     -70.43770000
H      -45.35170000     -34.10300000     -70.72160000
C      -45.56720000     -30.87320000     -72.00740000
H      -45.53680000     -29.88460000     -72.33630000
H      -46.31310000     -30.85880000     -71.26330000
C      -46.02040000     -31.70150000     -73.20820000
C      -45.89920000     -31.25470000     -74.50440000
C      -46.58450000     -33.03640000     -73.16400000
H      -45.71530000     -30.28550000     -74.93840000
C      -46.86900000     -33.54530000     -74.45750000
C      -46.86620000     -34.03010000     -72.14170000
C      -47.49940000     -35.14080000     -72.66420000
S      -46.36440000     -32.49680000     -75.69130000
S      -47.57310000     -35.13530000     -74.42770000
H      -47.77260000     -36.10170000     -72.29690000
