40
Properties=species:S:1:pos:R:3 #=T CELL(abcABC):=T 1.889726e+02=T 90.00000=T Traj:=T positionsangstrom=T Step:=T 0=T Bead:=T pbc="F F F"
C      -43.55420000     -35.83780000     -68.98010000
C      -44.13690000     -34.76920000     -68.35960000
C      -43.78530000     -33.39350000     -68.43870000
C      -42.67850000     -33.17170000     -69.37360000
C      -42.08170000     -34.28600000     -70.00950000
C      -42.57470000     -35.55370000     -69.92660000
H      -43.88330000     -36.86130000     -68.76620000
H      -44.34760000     -32.66490000     -67.92530000
H      -41.29110000     -34.04800000     -70.65160000
H      -42.03800000     -36.34200000     -70.50040000
C      -42.10940000     -31.72710000     -69.51350000
H      -41.17690000     -31.83260000     -70.06180000
H      -41.89370000     -31.36000000     -68.52930000
C      -45.37250000     -35.05600000     -67.43820000
H      -45.69070000     -36.09900000     -67.55900000
H      -45.07300000     -34.77600000     -66.42940000
S      -43.32840000     -30.48610000     -70.16290000
S      -46.93990000     -34.24820000     -68.03380000
C      -44.02290000     -31.43360000     -71.55940000
H      -43.36520000     -31.39870000     -72.48080000
H      -43.93900000     -32.48760000     -71.18700000
C      -47.05270000     -34.84140000     -69.77340000
H      -48.16460000     -34.94130000     -69.92910000
H      -46.58110000     -35.75300000     -69.96070000
C      -46.56640000     -33.79370000     -70.83560000
H      -47.10660000     -32.91170000     -70.50340000
H      -45.50780000     -33.56580000     -70.61440000
C      -45.46860000     -31.08880000     -71.90580000
H      -45.50720000     -29.96930000     -72.10960000
H      -46.14450000     -31.25710000     -71.02600000
C      -45.84530000     -31.85230000     -73.14980000
C      -45.75870000     -31.32580000     -74.38910000
C      -46.47390000     -33.16960000     -73.22390000
H      -45.12340000     -30.50930000     -74.66310000
C      -46.92620000     -33.49990000     -74.51090000
C      -46.75830000     -34.11810000     -72.21600000
C      -47.34160000     -35.25760000     -72.77840000
S      -46.42120000     -32.34240000     -75.65100000
S      -47.51090000     -35.14880000     -74.54170000
H      -47.81770000     -36.09770000     -72.29330000
