40
Properties=species:S:1:pos:R:3 #=T CELL(abcABC):=T 1.889726e+02=T 90.00000=T Traj:=T positionsangstrom=T Step:=T 0=T Bead:=T pbc="F F F"
C      -41.13070000     -33.10470000     -69.71970000
C      -41.75390000     -33.62060000     -70.90580000
C      -42.57180000     -34.70650000     -70.70530000
C      -42.64730000     -35.37810000     -69.49700000
C      -42.01960000     -34.88620000     -68.32180000
C      -41.22420000     -33.73930000     -68.44780000
H      -40.51110000     -32.15460000     -69.68300000
H      -43.25020000     -34.96500000     -71.55200000
H      -42.21270000     -35.27550000     -67.36470000
H      -40.62750000     -33.38700000     -67.62990000
C      -43.43840000     -36.72880000     -69.39810000
H      -43.95850000     -36.79030000     -68.40700000
H      -42.77190000     -37.61680000     -69.52480000
C      -41.57390000     -32.97700000     -72.23540000
H      -40.54110000     -32.73710000     -72.47420000
H      -41.89510000     -33.66810000     -73.03670000
S      -44.67760000     -36.82050000     -70.78440000
S      -42.50550000     -31.43790000     -72.43170000
C      -45.86210000     -35.44150000     -70.64670000
H      -46.76370000     -35.75030000     -70.04310000
H      -45.45880000     -34.59580000     -70.14780000
C      -44.24650000     -31.82300000     -71.84280000
H      -44.42720000     -30.97440000     -71.12200000
H      -44.16080000     -32.78370000     -71.46820000
C      -45.17170000     -31.82190000     -73.06550000
H      -44.94380000     -30.93640000     -73.60790000
H      -44.99250000     -32.62690000     -73.78130000
C      -46.44630000     -35.07520000     -72.07960000
H      -46.77490000     -35.99970000     -72.67020000
H      -45.68920000     -34.65390000     -72.66670000
C      -47.57670000     -34.08170000     -71.88840000
C      -48.74900000     -34.41760000     -71.26600000
C      -47.56720000     -32.66040000     -72.25840000
H      -48.84270000     -35.46490000     -70.89350000
C      -48.78500000     -32.07810000     -71.95990000
C      -46.62340000     -31.68060000     -72.76330000
C      -47.15990000     -30.41250000     -72.76390000
S      -49.97020000     -33.22340000     -71.20670000
S      -48.85480000     -30.34860000     -72.25810000
H      -46.50820000     -29.60500000     -73.15540000
