40
Properties=species:S:1:pos:R:3 #=T CELL(abcABC):=T 1.889726e+02=T 90.00000=T Traj:=T positionsangstrom=T Step:=T 0=T Bead:=T pbc="F F F"
C      -43.75020000     -32.17100000     -74.44010000
C      -42.93800000     -32.90940000     -73.58220000
C      -43.00720000     -34.30500000     -73.48490000
C      -44.06370000     -34.92740000     -74.16940000
C      -44.98630000     -34.21720000     -74.99040000
C      -44.83690000     -32.84250000     -75.08020000
H      -43.44850000     -31.10920000     -74.53100000
H      -42.37880000     -34.82200000     -72.74510000
H      -45.81360000     -34.69400000     -75.54930000
H      -45.52810000     -32.18520000     -75.57290000
C      -44.14440000     -36.47610000     -74.07570000
H      -43.12010000     -36.85440000     -74.17330000
H      -44.94730000     -36.90520000     -74.72310000
C      -41.89350000     -32.10530000     -72.80710000
H      -40.80460000     -32.26140000     -73.17510000
H      -42.05730000     -30.97950000     -72.87370000
S      -44.74210000     -37.03370000     -72.29540000
S      -41.90700000     -32.66750000     -70.99510000
C      -46.18230000     -35.84000000     -72.00050000
H      -46.44290000     -35.45130000     -72.98060000
H      -47.14660000     -36.32680000     -71.67940000
C      -43.57730000     -31.91460000     -70.57330000
H      -44.31610000     -32.03440000     -71.41570000
H      -43.35530000     -30.87090000     -70.43290000
C      -44.07310000     -32.51450000     -69.30220000
H      -44.02250000     -33.63320000     -69.31710000
H      -43.32960000     -32.20620000     -68.58210000
C      -45.78880000     -34.81200000     -70.98820000
H      -45.05110000     -34.13210000     -71.43290000
H      -45.34790000     -35.27190000     -70.08720000
C      -46.91530000     -33.95730000     -70.36880000
C      -48.27790000     -34.11900000     -70.55120000
C      -46.69450000     -32.66550000     -69.66810000
H      -48.56520000     -35.03050000     -71.08200000
C      -47.88130000     -32.03490000     -69.32080000
C      -45.53110000     -32.05450000     -69.02270000
C      -45.91610000     -31.03690000     -68.18640000
S      -49.31690000     -32.94080000     -69.77870000
S      -47.62130000     -30.73670000     -68.21020000
H      -45.23820000     -30.41660000     -67.63410000
