40
Properties=species:S:1:pos:R:3 #=T CELL(abcABC):=T 1.889726e+02=T 90.00000=T Traj:=T positionsangstrom=T Step:=T 0=T Bead:=T pbc="F F F"
C      -45.03740000     -35.91660000     -68.65090000
C      -44.98430000     -34.71530000     -67.97490000
C      -44.01700000     -33.74530000     -68.31820000
C      -42.93830000     -34.00180000     -69.18460000
C      -42.92770000     -35.26880000     -69.76110000
C      -43.92790000     -36.19280000     -69.52550000
H      -45.83210000     -36.61590000     -68.41850000
H      -44.10490000     -32.81960000     -67.76100000
H      -42.14660000     -35.54340000     -70.44230000
H      -43.82560000     -37.17060000     -70.10020000
C      -41.88210000     -32.97390000     -69.49330000
H      -41.19450000     -33.46620000     -70.15530000
H      -41.38940000     -32.71300000     -68.58160000
C      -46.14970000     -34.37430000     -67.11710000
H      -46.67950000     -35.32040000     -66.95980000
H      -45.74680000     -34.01510000     -66.16700000
S      -42.46180000     -31.42420000     -70.29520000
S      -47.24460000     -33.14820000     -67.97890000
C      -43.41040000     -32.19930000     -71.70630000
H      -42.71110000     -32.30290000     -72.60220000
H      -43.88320000     -33.19340000     -71.40660000
C      -47.37490000     -33.74190000     -69.70640000
H      -48.48000000     -33.86000000     -69.82810000
H      -46.91930000     -34.72030000     -69.83810000
C      -46.85440000     -32.86660000     -70.89590000
H      -47.23030000     -31.88460000     -70.89180000
H      -45.72620000     -32.82070000     -70.87730000
C      -44.47990000     -31.23420000     -72.23110000
H      -43.99650000     -30.35200000     -72.65360000
H      -45.13900000     -31.08410000     -71.38800000
C      -45.21550000     -31.84360000     -73.42720000
C      -44.67270000     -31.73380000     -74.72850000
C      -46.26790000     -32.81050000     -73.37800000
H      -43.77910000     -31.25900000     -75.07730000
C      -46.51460000     -33.42730000     -74.60620000
C      -47.05200000     -33.40420000     -72.30000000
C      -47.84270000     -34.42610000     -72.76330000
S      -45.56450000     -32.64000000     -75.87210000
S      -47.70780000     -34.70600000     -74.46740000
H      -48.48760000     -35.14540000     -72.22060000
