40
Properties=species:S:1:pos:R:3 #=T CELL(abcABC):=T 1.889726e+02=T 90.00000=T Traj:=T positionsangstrom=T Step:=T 0=T Bead:=T pbc="F F F"
C      -44.96750000     -36.01560000     -68.62610000
C      -45.14230000     -34.70070000     -68.17080000
C      -44.10290000     -33.75580000     -68.38780000
C      -43.01080000     -34.12320000     -69.21020000
C      -42.98550000     -35.37780000     -69.78400000
C      -43.85020000     -36.39990000     -69.38950000
H      -45.74900000     -36.75600000     -68.32760000
H      -44.24220000     -32.79830000     -67.91930000
H      -42.15250000     -35.65580000     -70.46030000
H      -43.66980000     -37.50720000     -69.72960000
C      -41.88500000     -33.12020000     -69.30300000
H      -40.99460000     -33.54710000     -69.82040000
H      -41.59710000     -32.66900000     -68.32790000
C      -46.39070000     -34.28830000     -67.27830000
H      -47.07300000     -35.17010000     -67.11050000
H      -46.10880000     -33.90780000     -66.29600000
S      -42.50140000     -31.57370000     -70.32280000
S      -47.36960000     -32.90760000     -68.02360000
C      -43.16150000     -32.25070000     -71.89600000
H      -42.43180000     -32.61720000     -72.52190000
H      -43.78610000     -33.11430000     -71.63120000
C      -47.70160000     -33.67420000     -69.71960000
H      -48.81890000     -33.69820000     -69.74980000
H      -47.41450000     -34.72120000     -69.67710000
C      -46.86740000     -32.86160000     -70.75950000
H      -47.10950000     -31.76640000     -70.69920000
H      -45.84540000     -32.85200000     -70.31240000
C      -44.13440000     -31.21730000     -72.45330000
H      -43.62610000     -30.30290000     -72.75770000
H      -44.82460000     -30.89750000     -71.70560000
C      -44.96100000     -31.80530000     -73.58210000
C      -44.54570000     -31.72580000     -74.91620000
C      -46.15790000     -32.69640000     -73.32650000
H      -43.76050000     -31.18660000     -75.42970000
C      -46.45080000     -33.36670000     -74.52180000
C      -46.83350000     -33.32430000     -72.13780000
C      -47.78060000     -34.22420000     -72.52270000
S      -45.56410000     -32.87540000     -75.92600000
S      -47.76250000     -34.55060000     -74.28860000
H      -48.49130000     -34.86170000     -71.98450000
