40
Properties=species:S:1:pos:R:3 #=T CELL(abcABC):=T 1.889726e+02=T 90.00000=T Traj:=T positionsangstrom=T Step:=T 0=T Bead:=T pbc="F F F"
C      -44.05260000     -32.56900000     -74.65990000
C      -43.14150000     -33.24210000     -73.78950000
C      -43.19110000     -34.66240000     -73.45680000
C      -44.18420000     -35.45660000     -73.96450000
C      -45.13190000     -34.81090000     -74.80030000
C      -45.05680000     -33.45190000     -75.14570000
H      -43.85400000     -31.50210000     -74.87810000
H      -42.43960000     -35.06960000     -72.68230000
H      -45.96390000     -35.37920000     -75.27640000
H      -45.69750000     -33.05200000     -75.89220000
C      -44.39640000     -36.88920000     -73.58430000
H      -43.42390000     -37.45910000     -73.68970000
H      -45.15200000     -37.40480000     -74.14820000
C      -41.96770000     -32.44000000     -73.24180000
H      -41.06120000     -32.95030000     -73.61210000
H      -41.93050000     -31.33300000     -73.60650000
S      -44.74680000     -37.13950000     -71.73520000
S      -41.97330000     -32.51920000     -71.32510000
C      -46.06130000     -35.96140000     -71.40880000
H      -46.40030000     -35.52550000     -72.32260000
H      -46.97530000     -36.40290000     -70.90430000
C      -43.64340000     -31.76980000     -70.99610000
H      -44.38120000     -32.28300000     -71.63410000
H      -43.79940000     -30.72430000     -71.25360000
C      -43.97800000     -31.93670000     -69.50090000
H      -43.84450000     -33.00300000     -69.15600000
H      -43.35100000     -31.36760000     -68.83420000
C      -45.61130000     -34.75700000     -70.49760000
H      -44.81960000     -34.23070000     -70.99600000
H      -45.18190000     -35.17200000     -69.54340000
C      -46.73290000     -33.87430000     -70.04810000
C      -48.05660000     -34.22120000     -69.97410000
C      -46.54170000     -32.48950000     -69.64010000
H      -48.44730000     -35.17880000     -70.17210000
C      -47.74120000     -31.86700000     -69.32610000
C      -45.42610000     -31.64460000     -69.33610000
C      -45.76580000     -30.40460000     -68.81600000
S      -49.17860000     -32.85810000     -69.53940000
S      -47.57260000     -30.20910000     -68.86540000
H      -45.23120000     -29.50120000     -68.54670000
