40
Properties=species:S:1:pos:R:3 #=T CELL(abcABC):=T 1.889726e+02=T 90.00000=T Traj:=T positionsangstrom=T Step:=T 0=T Bead:=T pbc="F F F"
C      -43.88300000     -32.77130000     -74.63750000
C      -43.08340000     -33.46470000     -73.73210000
C      -43.31350000     -34.81020000     -73.38440000
C      -44.53800000     -35.35840000     -73.79510000
C      -45.45420000     -34.68020000     -74.67380000
C      -45.07880000     -33.41420000     -75.06180000
H      -43.71470000     -31.71910000     -74.85500000
H      -42.62800000     -35.33070000     -72.76280000
H      -46.34370000     -35.22630000     -75.02800000
H      -45.74340000     -32.74710000     -75.67410000
C      -44.84550000     -36.84930000     -73.48670000
H      -44.15910000     -37.50930000     -73.99500000
H      -45.90160000     -37.14910000     -73.81710000
C      -41.79150000     -32.77730000     -73.28830000
H      -40.88120000     -33.42980000     -73.58600000
H      -41.73840000     -31.75830000     -73.72510000
S      -44.74550000     -37.21590000     -71.60940000
S      -41.84650000     -32.51820000     -71.46630000
C      -46.16940000     -36.18580000     -70.95130000
H      -46.98270000     -36.27380000     -71.69950000
H      -46.54440000     -36.64580000     -70.10040000
C      -43.47560000     -31.59350000     -71.07140000
H      -44.15350000     -31.83860000     -71.87150000
H      -43.22540000     -30.52210000     -70.98640000
C      -43.96570000     -32.04120000     -69.70980000
H      -43.78100000     -33.10050000     -69.69210000
H      -43.34530000     -31.59370000     -68.90510000
C      -45.75560000     -34.74370000     -70.69160000
H      -45.38310000     -34.42560000     -71.70600000
H      -44.88080000     -34.75820000     -70.06570000
C      -46.73220000     -33.72570000     -70.16820000
C      -48.06480000     -34.04450000     -70.26050000
C      -46.49830000     -32.40460000     -69.64740000
H      -48.60960000     -34.94240000     -70.47990000
C      -47.72990000     -31.74910000     -69.39080000
C      -45.40780000     -31.59570000     -69.37640000
C      -45.66580000     -30.34670000     -68.85550000
S      -49.12030000     -32.78870000     -69.64330000
S      -47.43890000     -30.12900000     -68.73390000
H      -44.91830000     -29.63990000     -68.63110000
