40
Properties=species:S:1:pos:R:3 #=T CELL(abcABC):=T 1.889726e+02=T 90.00000=T Traj:=T positionsangstrom=T Step:=T 0=T Bead:=T pbc="F F F"
C      -43.91710000     -32.76010000     -74.49160000
C      -43.03340000     -33.50580000     -73.67810000
C      -43.38610000     -34.82110000     -73.24350000
C      -44.60680000     -35.35040000     -73.78770000
C      -45.49640000     -34.55660000     -74.52690000
C      -45.12780000     -33.26500000     -75.00560000
H      -43.51920000     -31.89320000     -75.03970000
H      -42.79400000     -35.48550000     -72.62930000
H      -46.45360000     -34.99650000     -74.89260000
H      -45.66460000     -32.81790000     -75.80520000
C      -44.94550000     -36.77830000     -73.42090000
H      -44.15540000     -37.45770000     -73.79010000
H      -45.88150000     -37.09950000     -73.82520000
C      -41.71590000     -32.90240000     -73.28480000
H      -40.86300000     -33.49870000     -73.48830000
H      -41.55500000     -31.99060000     -73.82190000
S      -44.89410000     -37.23730000     -71.59090000
S      -41.73840000     -32.54950000     -71.38770000
C      -46.17910000     -36.10790000     -70.90960000
H      -47.07050000     -36.26200000     -71.60390000
H      -46.42350000     -36.43020000     -69.94680000
C      -43.41220000     -31.84390000     -71.15670000
H      -44.12820000     -32.45410000     -71.72840000
H      -43.57800000     -30.87570000     -71.61490000
C      -43.84580000     -32.03870000     -69.69400000
H      -43.60400000     -33.01800000     -69.35140000
H      -43.22540000     -31.39930000     -69.01750000
C      -45.78010000     -34.66230000     -70.80750000
H      -45.57610000     -34.12190000     -71.80830000
H      -44.90890000     -34.62040000     -70.21460000
C      -46.87050000     -33.74640000     -70.29460000
C      -48.20950000     -34.05340000     -70.29080000
C      -46.52790000     -32.42740000     -69.84730000
H      -48.68280000     -34.97630000     -70.67550000
C      -47.69190000     -31.71530000     -69.47610000
C      -45.30960000     -31.68480000     -69.46850000
C      -45.60480000     -30.49910000     -68.90420000
S      -49.14380000     -32.61740000     -69.70250000
S      -47.29700000     -30.16880000     -68.72240000
H      -44.85300000     -29.78390000     -68.63780000
