40
Properties=species:S:1:pos:R:3 #=T CELL(abcABC):=T 1.889726e+02=T 90.00000=T Traj:=T positionsangstrom=T Step:=T 0=T Bead:=T pbc="F F F"
C      -43.98220000     -32.79600000     -74.43930000
C      -42.99190000     -33.54560000     -73.75880000
C      -43.27780000     -34.90740000     -73.43970000
C      -44.53390000     -35.44490000     -73.84150000
C      -45.52110000     -34.68210000     -74.44490000
C      -45.19460000     -33.34410000     -74.75600000
H      -43.90230000     -31.74280000     -74.48850000
H      -42.61690000     -35.53590000     -72.86840000
H      -46.54040000     -35.01020000     -74.63760000
H      -46.01890000     -32.82740000     -75.07390000
C      -44.94860000     -36.84640000     -73.46210000
H      -44.26700000     -37.58670000     -74.00420000
H      -45.94090000     -37.00260000     -73.89800000
C      -41.69120000     -32.96000000     -73.29320000
H      -40.82320000     -33.62800000     -73.28710000
H      -41.46550000     -31.99860000     -73.85950000
S      -44.97320000     -37.20250000     -71.62130000
S      -41.62300000     -32.58750000     -71.47580000
C      -46.31630000     -36.06160000     -71.03910000
H      -47.06140000     -36.09540000     -71.82920000
H      -46.76510000     -36.45750000     -70.07390000
C      -43.41490000     -32.18130000     -71.16720000
H      -43.93540000     -32.92170000     -71.79100000
H      -43.71360000     -31.17910000     -71.51350000
C      -43.83240000     -32.17120000     -69.62630000
H      -43.82940000     -33.21720000     -69.19870000
H      -43.11770000     -31.42870000     -69.14480000
C      -45.80170000     -34.71340000     -70.67260000
H      -45.35490000     -34.36220000     -71.57430000
H      -44.96110000     -34.71790000     -69.92540000
C      -46.90230000     -33.69360000     -70.27590000
C      -48.28480000     -33.76850000     -70.41110000
C      -46.50850000     -32.45890000     -69.66440000
H      -48.79730000     -34.63170000     -70.80250000
C      -47.61420000     -31.70420000     -69.29870000
C      -45.25820000     -31.62820000     -69.46770000
C      -45.60150000     -30.40120000     -68.98370000
S      -49.10270000     -32.43370000     -69.77910000
S      -47.33410000     -30.10310000     -68.66110000
H      -44.92560000     -29.63770000     -68.60050000
