40
Properties=species:S:1:pos:R:3 #=T CELL(abcABC):=T 1.889726e+02=T 90.00000=T Traj:=T positionsangstrom=T Step:=T 0=T Bead:=T pbc="F F F"
C      -43.95730000     -32.82140000     -74.40560000
C      -42.97000000     -33.61750000     -73.79100000
C      -43.27550000     -34.98840000     -73.54280000
C      -44.56190000     -35.50400000     -73.81320000
C      -45.56180000     -34.64100000     -74.39200000
C      -45.22820000     -33.33080000     -74.63220000
H      -43.77190000     -31.81270000     -74.80480000
H      -42.58780000     -35.59220000     -72.98160000
H      -46.54870000     -35.01000000     -74.66840000
H      -46.02580000     -32.72270000     -75.04600000
C      -44.81360000     -36.94410000     -73.43650000
H      -44.15540000     -37.69810000     -73.76180000
H      -45.81930000     -37.27990000     -73.79470000
C      -41.69010000     -33.02910000     -73.24930000
H      -40.88170000     -33.80110000     -73.23600000
H      -41.41640000     -32.28580000     -73.92920000
S      -45.00770000     -37.18330000     -71.64140000
S      -41.87310000     -32.68300000     -71.48490000
C      -46.41120000     -36.01080000     -71.27530000
H      -46.97960000     -35.73260000     -72.10770000
H      -47.04500000     -36.67570000     -70.61970000
C      -43.49350000     -31.85630000     -71.22020000
H      -44.13810000     -32.37260000     -71.93880000
H      -43.50420000     -30.79350000     -71.38430000
C      -43.87370000     -32.20550000     -69.67890000
H      -43.82800000     -33.25550000     -69.47060000
H      -43.14060000     -31.80910000     -69.03510000
C      -45.86930000     -34.76370000     -70.62050000
H      -45.18520000     -34.34080000     -71.26910000
H      -45.31890000     -35.17240000     -69.73400000
C      -46.86710000     -33.66210000     -70.22010000
C      -48.21390000     -33.87650000     -70.28960000
C      -46.48400000     -32.35400000     -69.72080000
H      -48.69140000     -34.78260000     -70.62950000
C      -47.59240000     -31.56310000     -69.49580000
C      -45.23550000     -31.69180000     -69.35910000
C      -45.44020000     -30.53120000     -68.71640000
S      -49.06500000     -32.40950000     -69.71040000
S      -47.14870000     -29.99060000     -68.75670000
H      -44.66840000     -29.78100000     -68.55340000
