40
Properties=species:S:1:pos:R:3 #=T CELL(abcABC):=T 1.889726e+02=T 90.00000=T Traj:=T positionsangstrom=T Step:=T 0=T Bead:=T pbc="F F F"
C      -44.13490000     -32.92210000     -74.41320000
C      -43.18300000     -33.62700000     -73.68740000
C      -43.41800000     -34.92810000     -73.28440000
C      -44.51500000     -35.64040000     -73.81520000
C      -45.51800000     -34.86740000     -74.46950000
C      -45.24890000     -33.55280000     -74.88560000
H      -44.04530000     -31.86100000     -74.57680000
H      -42.69130000     -35.51200000     -72.67300000
H      -46.38030000     -35.41190000     -74.96500000
H      -45.88300000     -33.04030000     -75.62540000
C      -44.76210000     -37.03150000     -73.46860000
H      -43.75980000     -37.52900000     -73.44670000
H      -45.33780000     -37.57230000     -74.20150000
C      -41.84430000     -32.96510000     -73.24620000
H      -41.03860000     -33.53220000     -73.61620000
H      -41.75910000     -31.86610000     -73.43880000
S      -45.43800000     -37.25000000     -71.72040000
S      -41.70320000     -33.04060000     -71.37180000
C      -46.61960000     -35.88160000     -71.30860000
H      -47.17440000     -35.54090000     -72.21710000
H      -47.20870000     -36.29970000     -70.57680000
C      -43.19660000     -32.00330000     -70.93610000
H      -43.98380000     -32.18890000     -71.62590000
H      -42.92350000     -30.97070000     -71.10940000
C      -43.69120000     -32.13210000     -69.51060000
H      -43.71170000     -33.16260000     -69.30000000
H      -43.00550000     -31.59030000     -68.85510000
C      -45.85010000     -34.72370000     -70.68430000
H      -45.11370000     -34.34030000     -71.44060000
H      -45.27410000     -35.11470000     -69.85620000
C      -46.73460000     -33.59000000     -70.17830000
C      -48.12890000     -33.65890000     -70.20920000
C      -46.33590000     -32.26920000     -69.61150000
H      -48.67020000     -34.56500000     -70.49810000
C      -47.50220000     -31.47670000     -69.31210000
C      -45.12390000     -31.57740000     -69.36390000
C      -45.36780000     -30.23940000     -69.11260000
S      -49.00900000     -32.27630000     -69.68200000
S      -47.11550000     -29.85510000     -68.96180000
H      -44.64230000     -29.50240000     -68.71950000
