40
Properties=species:S:1:pos:R:3 #=T CELL(abcABC):=T 1.889726e+02=T 90.00000=T Traj:=T positionsangstrom=T Step:=T 0=T Bead:=T pbc="F F F"
C      -43.94580000     -33.03570000     -74.46220000
C      -43.08480000     -33.73630000     -73.67020000
C      -43.38540000     -35.02220000     -73.29510000
C      -44.57960000     -35.65310000     -73.67390000
C      -45.43240000     -34.94460000     -74.58260000
C      -45.08020000     -33.63500000     -75.00320000
H      -43.67140000     -32.09650000     -74.94980000
H      -42.74460000     -35.41340000     -72.56710000
H      -46.36420000     -35.44550000     -74.86180000
H      -45.79040000     -33.06230000     -75.58210000
C      -44.87800000     -37.07920000     -73.32130000
H      -43.99890000     -37.72340000     -73.50850000
H      -45.71590000     -37.48150000     -73.95880000
C      -41.84910000     -32.98260000     -73.06450000
H      -41.00470000     -33.48550000     -73.50760000
H      -41.81030000     -31.92650000     -73.44410000
S      -45.54410000     -37.34730000     -71.61200000
S      -41.86130000     -32.96680000     -71.23480000
C      -46.48010000     -35.79850000     -71.30240000
H      -46.96870000     -35.47330000     -72.25110000
H      -47.34060000     -36.08300000     -70.69290000
C      -43.38210000     -31.84300000     -71.00140000
H      -44.28310000     -32.00340000     -71.66760000
H      -42.99360000     -30.83230000     -71.16470000
C      -43.81310000     -32.16920000     -69.64080000
H      -43.85950000     -33.27220000     -69.54400000
H      -43.08060000     -31.83570000     -68.84990000
C      -45.74210000     -34.61830000     -70.63790000
H      -45.08720000     -34.14700000     -71.32560000
H      -45.08240000     -35.05330000     -69.84850000
C      -46.66880000     -33.53700000     -70.21730000
C      -48.04080000     -33.69540000     -70.20680000
C      -46.35990000     -32.18410000     -69.77430000
H      -48.52390000     -34.62020000     -70.46880000
C      -47.44610000     -31.37600000     -69.56290000
C      -45.15820000     -31.59700000     -69.33220000
C      -45.33270000     -30.28780000     -68.96230000
S      -49.01900000     -32.26460000     -69.73970000
S      -47.02570000     -29.80570000     -69.06410000
H      -44.56190000     -29.54940000     -68.71950000
