40
Properties=species:S:1:pos:R:3 #=T CELL(abcABC):=T 1.889726e+02=T 90.00000=T Traj:=T positionsangstrom=T Step:=T 0=T Bead:=T pbc="F F F"
C      -43.63020000     -36.45270000     -70.08870000
C      -42.67270000     -35.43060000     -70.28290000
C      -42.34860000     -35.03110000     -71.57020000
C      -43.14410000     -35.44750000     -72.59950000
C      -44.02670000     -36.49380000     -72.38370000
C      -44.34310000     -36.97220000     -71.12430000
H      -43.90430000     -36.67290000     -69.09700000
H      -41.63100000     -34.21980000     -71.61150000
H      -44.59710000     -36.90250000     -73.19280000
H      -45.14120000     -37.61640000     -70.89310000
C      -42.96370000     -34.90040000     -74.01890000
H      -42.73370000     -35.65850000     -74.77710000
H      -42.16570000     -34.13710000     -74.14120000
C      -41.94280000     -34.74790000     -69.10980000
H      -42.19150000     -35.17750000     -68.17140000
H      -40.81570000     -34.77550000     -69.25530000
S      -44.53140000     -34.16480000     -74.63130000
S      -42.45290000     -32.88520000     -68.96620000
C      -44.47030000     -32.36680000     -74.17350000
H      -43.40750000     -31.96670000     -74.28950000
H      -45.10670000     -31.84640000     -74.93140000
C      -44.22950000     -33.02360000     -69.14620000
H      -44.67680000     -33.44190000     -68.19710000
H      -44.47850000     -33.82500000     -69.84890000
C      -45.03400000     -31.69130000     -69.18870000
H      -45.05550000     -31.34090000     -68.12030000
H      -44.57060000     -30.93170000     -69.86540000
C      -44.95840000     -32.28880000     -72.70790000
H      -44.53710000     -31.37970000     -72.17250000
H      -44.53170000     -33.14570000     -72.22620000
C      -46.40760000     -32.27620000     -72.31800000
C      -47.38840000     -32.46390000     -73.20870000
C      -46.97760000     -32.08230000     -70.98510000
H      -47.24180000     -32.64960000     -74.27840000
C      -48.36910000     -32.12760000     -70.96690000
C      -46.49230000     -31.77950000     -69.62780000
C      -47.51880000     -31.49380000     -68.74590000
S      -49.03500000     -32.31190000     -72.54920000
S      -49.10510000     -31.65600000     -69.49450000
H      -47.41570000     -31.11570000     -67.66980000
