40
Properties=species:S:1:pos:R:3 #=T CELL(abcABC):=T 1.889726e+02=T 90.00000=T Traj:=T positionsangstrom=T Step:=T 0=T Bead:=T pbc="F F F"
C      -43.62240000     -33.32320000     -74.51130000
C      -42.78950000     -34.00890000     -73.63910000
C      -43.15600000     -35.24610000     -73.16240000
C      -44.39270000     -35.78430000     -73.54440000
C      -45.20060000     -35.06920000     -74.40260000
C      -44.78150000     -33.90620000     -74.99990000
H      -43.37390000     -32.35660000     -74.90330000
H      -42.57060000     -35.97740000     -72.52910000
H      -46.22590000     -35.50400000     -74.48950000
H      -45.43450000     -33.39920000     -75.69760000
C      -44.84300000     -37.13010000     -73.03030000
H      -44.17550000     -37.91470000     -73.31480000
H      -45.76590000     -37.40790000     -73.39850000
C      -41.54590000     -33.33910000     -73.11260000
H      -40.67380000     -34.04840000     -73.18180000
H      -41.33130000     -32.55600000     -73.94860000
S      -45.11240000     -37.17420000     -71.20080000
S      -41.88530000     -32.79420000     -71.33640000
C      -46.50160000     -35.93590000     -70.92140000
H      -47.08260000     -35.89490000     -71.86060000
H      -47.16210000     -36.42340000     -70.21090000
C      -43.59940000     -31.99490000     -71.22580000
H      -44.18710000     -32.56110000     -71.91150000
H      -43.69690000     -30.93790000     -71.42890000
C      -43.99100000     -32.11850000     -69.71900000
H      -44.03540000     -33.17180000     -69.43110000
H      -43.14680000     -31.68570000     -69.12370000
C      -45.90680000     -34.57190000     -70.51690000
H      -45.04240000     -34.46360000     -71.28070000
H      -45.36050000     -34.63290000     -69.57330000
C      -46.92520000     -33.45610000     -70.34680000
C      -48.26610000     -33.57880000     -70.61590000
C      -46.53960000     -32.14130000     -69.81040000
H      -48.71360000     -34.49050000     -71.08130000
C      -47.64890000     -31.25980000     -69.75200000
C      -45.29820000     -31.48540000     -69.41010000
C      -45.60310000     -30.25000000     -68.81580000
S      -49.15460000     -31.98900000     -70.30750000
S      -47.31460000     -29.79090000     -68.90760000
H      -44.94140000     -29.57740000     -68.38990000
