40
Properties=species:S:1:pos:R:3 #=T CELL(abcABC):=T 1.889726e+02=T 90.00000=T Traj:=T positionsangstrom=T Step:=T 0=T Bead:=T pbc="F F F"
C      -43.63420000     -33.40300000     -74.56680000
C      -42.85510000     -33.88370000     -73.52820000
C      -43.21840000     -35.20860000     -73.04030000
C      -44.39000000     -35.83130000     -73.47790000
C      -45.10050000     -35.27480000     -74.58630000
C      -44.76130000     -34.02220000     -75.08990000
H      -43.41820000     -32.45740000     -75.03730000
H      -42.70790000     -35.70270000     -72.18370000
H      -45.85270000     -35.87500000     -75.04650000
H      -45.26850000     -33.66660000     -75.96180000
C      -44.75680000     -37.17320000     -72.90710000
H      -43.82470000     -37.86420000     -72.94130000
H      -45.56590000     -37.60770000     -73.51200000
C      -41.69770000     -33.03800000     -72.97060000
H      -40.89170000     -33.64070000     -73.01090000
H      -41.55120000     -32.04890000     -73.44820000
S      -45.16870000     -37.19600000     -71.08060000
S      -41.76790000     -32.74280000     -71.14590000
C      -46.48670000     -35.95780000     -70.85900000
H      -47.19090000     -36.01610000     -71.67320000
H      -47.00380000     -36.14720000     -69.94350000
C      -43.40190000     -31.90060000     -71.01880000
H      -43.98840000     -32.57810000     -71.64570000
H      -43.47420000     -30.90080000     -71.43970000
C      -43.96800000     -31.92390000     -69.59220000
H      -43.87960000     -32.79530000     -69.00570000
H      -43.34200000     -31.15720000     -69.05420000
C      -45.89150000     -34.56130000     -70.80530000
H      -45.33680000     -34.33570000     -71.67380000
H      -45.12510000     -34.56390000     -70.01130000
C      -46.92370000     -33.39930000     -70.52450000
C      -48.26080000     -33.54760000     -70.75900000
C      -46.58120000     -32.12430000     -69.95970000
H      -48.71490000     -34.36870000     -71.40770000
C      -47.76510000     -31.38960000     -69.69110000
C      -45.38850000     -31.43040000     -69.49230000
C      -45.63840000     -30.15980000     -69.09910000
S      -49.18380000     -32.20180000     -70.29960000
S      -47.33350000     -29.80440000     -69.06130000
H      -44.90030000     -29.42790000     -68.86350000
