40
Properties=species:S:1:pos:R:3 #=T CELL(abcABC):=T 1.889726e+02=T 90.00000=T Traj:=T positionsangstrom=T Step:=T 0=T Bead:=T pbc="F F F"
C      -43.66700000     -33.43170000     -74.58520000
C      -42.92690000     -33.80230000     -73.46050000
C      -43.35840000     -34.98560000     -72.83060000
C      -44.31130000     -35.83490000     -73.38950000
C      -44.91820000     -35.51920000     -74.59210000
C      -44.63320000     -34.23130000     -75.08600000
H      -43.42220000     -32.48490000     -75.06200000
H      -42.88970000     -35.26670000     -71.95050000
H      -45.69210000     -36.07410000     -75.04370000
H      -45.26340000     -33.84800000     -75.92100000
C      -44.72140000     -37.12960000     -72.78300000
H      -43.97170000     -37.87230000     -72.85980000
H      -45.56740000     -37.46920000     -73.42890000
C      -41.71360000     -33.08790000     -72.93040000
H      -40.76800000     -33.54100000     -73.24620000
H      -41.63070000     -32.06490000     -73.38480000
S      -45.11050000     -37.21190000     -71.01430000
S      -41.72600000     -32.79480000     -71.02650000
C      -46.38650000     -35.82370000     -70.87560000
H      -47.16000000     -36.10510000     -71.63940000
H      -46.80300000     -35.88630000     -69.77790000
C      -43.34260000     -31.86410000     -70.88710000
H      -44.00090000     -32.31880000     -71.66460000
H      -43.30060000     -30.78960000     -71.16110000
C      -44.04140000     -31.99510000     -69.51100000
H      -43.86310000     -33.04030000     -69.16610000
H      -43.54280000     -31.30870000     -68.88540000
C      -45.87890000     -34.42460000     -71.06400000
H      -45.73820000     -34.17470000     -72.13250000
H      -44.91760000     -34.33060000     -70.49690000
C      -46.91790000     -33.36950000     -70.64480000
C      -48.25490000     -33.62300000     -70.73020000
C      -46.61090000     -32.09170000     -70.09230000
H      -48.73120000     -34.58470000     -70.94520000
C      -47.77900000     -31.32670000     -69.93860000
C      -45.43680000     -31.43040000     -69.59740000
C      -45.73150000     -30.22600000     -69.09790000
S      -49.22070000     -32.23260000     -70.23330000
S      -47.42460000     -29.73090000     -69.27890000
H      -44.95700000     -29.57430000     -68.66020000
