40
Properties=species:S:1:pos:R:3 #=T CELL(abcABC):=T 1.889726e+02=T 90.00000=T Traj:=T positionsangstrom=T Step:=T 0=T Bead:=T pbc="F F F"
C      -43.45440000     -33.48670000     -74.58870000
C      -42.71560000     -33.92520000     -73.44920000
C      -43.09540000     -35.15500000     -72.90350000
C      -44.18890000     -35.91670000     -73.44000000
C      -44.90630000     -35.42050000     -74.57000000
C      -44.52850000     -34.23270000     -75.16050000
H      -43.18450000     -32.50460000     -75.03650000
H      -42.57620000     -35.50060000     -72.06970000
H      -45.73290000     -35.99120000     -74.99840000
H      -45.09550000     -33.84040000     -76.04720000
C      -44.60050000     -37.20780000     -72.78600000
H      -43.79580000     -37.97400000     -72.83340000
H      -45.41310000     -37.75820000     -73.36740000
C      -41.68330000     -33.04330000     -72.80550000
H      -40.53300000     -33.30500000     -72.93790000
H      -41.78700000     -32.07860000     -73.30020000
S      -45.02260000     -37.06340000     -71.00430000
S      -41.96760000     -32.92420000     -71.00880000
C      -46.44420000     -35.92750000     -70.78100000
H      -47.25710000     -36.18500000     -71.37460000
H      -46.80290000     -36.13830000     -69.82450000
C      -43.40920000     -31.72980000     -70.94130000
H      -44.06890000     -31.99330000     -71.71450000
H      -43.01980000     -30.71880000     -71.09790000
C      -44.06080000     -31.92590000     -69.57850000
H      -44.04620000     -33.06900000     -69.33740000
H      -43.52400000     -31.46780000     -68.79060000
C      -45.97300000     -34.50560000     -70.97460000
H      -45.77610000     -34.46970000     -72.01220000
H      -44.94070000     -34.41120000     -70.60890000
C      -46.95910000     -33.44980000     -70.56650000
C      -48.31120000     -33.54870000     -70.85240000
C      -46.65000000     -32.13880000     -69.97540000
H      -48.81410000     -34.38550000     -71.21600000
C      -47.76480000     -31.37580000     -69.77440000
C      -45.48710000     -31.41740000     -69.55750000
C      -45.79660000     -30.10110000     -69.26310000
S      -49.22680000     -32.10430000     -70.33180000
S      -47.51160000     -29.75020000     -69.25960000
H      -45.16450000     -29.31610000     -68.74660000
