40
Properties=species:S:1:pos:R:3 #=T CELL(abcABC):=T 1.889726e+02=T 90.00000=T Traj:=T positionsangstrom=T Step:=T 0=T Bead:=T pbc="F F F"
C      -43.42580000     -33.52810000     -74.47520000
C      -42.65560000     -34.06470000     -73.46430000
C      -42.98050000     -35.31650000     -72.95720000
C      -44.06120000     -36.02110000     -73.47270000
C      -44.78160000     -35.53740000     -74.58540000
C      -44.44630000     -34.34900000     -75.14840000
H      -43.22630000     -32.52530000     -74.83810000
H      -42.38600000     -35.67270000     -72.13180000
H      -45.59620000     -36.19880000     -75.07500000
H      -44.88670000     -34.03780000     -76.08070000
C      -44.44850000     -37.33500000     -72.73930000
H      -43.51200000     -37.94680000     -72.73830000
H      -45.24660000     -37.82960000     -73.19850000
C      -41.57520000     -33.17710000     -72.87830000
H      -40.69440000     -33.74670000     -72.71270000
H      -41.50280000     -32.31030000     -73.44580000
S      -44.89710000     -37.03320000     -70.85590000
S      -41.97520000     -32.92560000     -70.99480000
C      -46.30750000     -35.81080000     -70.97690000
H      -46.87230000     -35.87550000     -72.01080000
H      -46.98680000     -36.04200000     -70.09460000
C      -43.52900000     -31.95380000     -70.95960000
H      -44.34900000     -32.31750000     -71.61320000
H      -43.23560000     -30.90890000     -71.29590000
C      -44.14870000     -31.87250000     -69.59520000
H      -44.09080000     -32.83250000     -69.10210000
H      -43.54570000     -31.25480000     -68.94440000
C      -45.90020000     -34.35430000     -70.84910000
H      -45.37220000     -33.96560000     -71.74710000
H      -45.25380000     -34.20790000     -70.00190000
C      -47.05730000     -33.37370000     -70.56710000
C      -48.42240000     -33.49660000     -70.83350000
C      -46.76090000     -31.98800000     -70.06030000
H      -48.85360000     -34.26910000     -71.31790000
C      -47.91410000     -31.23690000     -69.87700000
C      -45.57170000     -31.41630000     -69.56960000
C      -45.84860000     -30.14640000     -69.10420000
S      -49.34040000     -32.04480000     -70.51330000
S      -47.61650000     -29.65380000     -69.19460000
H      -45.02980000     -29.44460000     -68.69990000
