40
Properties=species:S:1:pos:R:3 #=T CELL(abcABC):=T 1.889726e+02=T 90.00000=T Traj:=T positionsangstrom=T Step:=T 0=T Bead:=T pbc="F F F"
C      -43.44100000     -33.73790000     -74.36260000
C      -42.71580000     -34.09950000     -73.22140000
C      -43.07580000     -35.35610000     -72.55280000
C      -43.97760000     -36.21410000     -73.10270000
C      -44.78410000     -35.71840000     -74.22220000
C      -44.51720000     -34.55660000     -74.85400000
H      -43.10470000     -32.82290000     -74.81130000
H      -42.48040000     -35.73550000     -71.77330000
H      -45.54910000     -36.40380000     -74.57800000
H      -45.00350000     -34.18560000     -75.76660000
C      -44.32230000     -37.54900000     -72.40450000
H      -43.39850000     -38.02040000     -72.02140000
H      -44.98210000     -38.11680000     -73.06540000
C      -41.70020000     -33.08030000     -72.70140000
H      -40.63750000     -33.48030000     -72.61390000
H      -41.68380000     -32.21430000     -73.26260000
S      -45.26650000     -37.30320000     -70.71790000
S      -41.83910000     -32.57470000     -70.91100000
C      -46.41200000     -35.81200000     -71.05060000
H      -46.66200000     -35.91710000     -72.07940000
H      -47.38300000     -35.87940000     -70.41370000
C      -43.48320000     -31.65760000     -70.96350000
H      -44.11670000     -32.24770000     -71.60430000
H      -43.42490000     -30.65760000     -71.38840000
C      -44.10470000     -31.50340000     -69.54690000
H      -43.96850000     -32.47360000     -68.97500000
H      -43.62860000     -30.73750000     -69.00630000
C      -45.82200000     -34.47230000     -70.74160000
H      -45.00900000     -34.25770000     -71.44360000
H      -45.29510000     -34.49220000     -69.77980000
C      -46.88830000     -33.38220000     -70.78640000
C      -48.17630000     -33.55040000     -71.08860000
C      -46.64230000     -31.99790000     -70.31340000
H      -48.62310000     -34.45470000     -71.61770000
C      -47.81690000     -31.22830000     -70.30790000
C      -45.56020000     -31.20040000     -69.64780000
C      -45.96640000     -29.91230000     -69.30770000
S      -49.23060000     -32.10340000     -70.78500000
S      -47.66240000     -29.66000000     -69.56190000
H      -45.41270000     -29.19850000     -68.73900000
