40
Properties=species:S:1:pos:R:3 #=T CELL(abcABC):=T 1.889726e+02=T 90.00000=T Traj:=T positionsangstrom=T Step:=T 0=T Bead:=T pbc="F F F"
C      -43.55850000     -33.60600000     -74.19160000
C      -42.75660000     -34.03240000     -73.04520000
C      -43.03040000     -35.17860000     -72.41710000
C      -43.93400000     -36.12750000     -72.98780000
C      -44.67480000     -35.76640000     -74.06770000
C      -44.46360000     -34.50900000     -74.66460000
H      -43.33410000     -32.65660000     -74.64880000
H      -42.61960000     -35.35150000     -71.40790000
H      -45.44350000     -36.45440000     -74.36870000
H      -45.10300000     -34.25180000     -75.53510000
C      -44.24580000     -37.41340000     -72.31020000
H      -43.39070000     -37.98870000     -71.78270000
H      -44.69500000     -38.13560000     -73.00150000
C      -41.63390000     -33.20360000     -72.63580000
H      -40.71510000     -33.87000000     -72.74740000
H      -41.48720000     -32.37500000     -73.37420000
S      -45.33070000     -37.17020000     -70.78350000
S      -41.80630000     -32.61510000     -70.87250000
C      -46.47380000     -35.85240000     -71.06720000
H      -46.83530000     -35.84640000     -72.08760000
H      -47.33160000     -36.04970000     -70.42870000
C      -43.47230000     -31.77630000     -71.04970000
H      -44.03320000     -32.30440000     -71.89050000
H      -43.41130000     -30.75370000     -71.41890000
C      -44.22190000     -31.82530000     -69.69710000
H      -44.31130000     -32.83460000     -69.28220000
H      -43.50960000     -31.34650000     -68.95440000
C      -45.89160000     -34.50160000     -70.68890000
H      -45.10410000     -34.21730000     -71.39090000
H      -45.42240000     -34.62340000     -69.69900000
C      -46.91330000     -33.36720000     -70.67650000
C      -48.17050000     -33.60450000     -70.95980000
C      -46.71110000     -32.00800000     -70.28370000
H      -48.68260000     -34.51950000     -71.26590000
C      -47.84900000     -31.23400000     -70.28990000
C      -45.59060000     -31.20140000     -69.77970000
C      -45.90360000     -29.90620000     -69.49290000
S      -49.17990000     -32.18740000     -70.88190000
S      -47.63560000     -29.59410000     -69.78100000
H      -45.33630000     -29.07260000     -69.11660000
