40
Properties=species:S:1:pos:R:3 #=T CELL(abcABC):=T 1.889726e+02=T 90.00000=T Traj:=T positionsangstrom=T Step:=T 0=T Bead:=T pbc="F F F"
C      -43.38620000     -33.63820000     -74.02900000
C      -42.60350000     -34.09150000     -73.04440000
C      -42.85640000     -35.36510000     -72.40980000
C      -43.99300000     -36.02740000     -72.75560000
C      -44.83880000     -35.60110000     -73.78580000
C      -44.59450000     -34.32700000     -74.31990000
H      -43.14120000     -32.75650000     -74.56860000
H      -42.14220000     -35.76030000     -71.64100000
H      -45.70260000     -36.11100000     -74.10310000
H      -45.25040000     -34.02080000     -75.06800000
C      -44.21120000     -37.42040000     -72.15580000
H      -43.24450000     -37.81070000     -71.84150000
H      -44.78000000     -38.09830000     -72.95380000
C      -41.41080000     -33.31150000     -72.58820000
H      -40.53650000     -33.92830000     -72.46610000
H      -41.15930000     -32.38850000     -73.22770000
S      -45.25810000     -37.12200000     -70.61050000
S      -41.77560000     -32.69250000     -70.92560000
C      -46.68560000     -35.98920000     -70.83560000
H      -47.08660000     -35.88900000     -71.80250000
H      -47.33100000     -36.44020000     -70.15790000
C      -43.45180000     -31.97250000     -71.17420000
H      -44.12050000     -32.60280000     -71.79420000
H      -43.45990000     -30.95760000     -71.65220000
C      -44.17460000     -31.96730000     -69.81410000
H      -44.18240000     -33.02530000     -69.44450000
H      -43.63420000     -31.33780000     -69.16500000
C      -46.24500000     -34.56140000     -70.22180000
H      -45.24100000     -34.35380000     -70.63820000
H      -46.08860000     -34.69520000     -69.13830000
C      -47.14660000     -33.40620000     -70.53540000
C      -48.51600000     -33.58120000     -70.74780000
C      -46.75920000     -32.05440000     -70.44450000
H      -49.12830000     -34.42660000     -70.85780000
C      -47.81070000     -31.12730000     -70.70830000
C      -45.55380000     -31.36610000     -70.00340000
C      -45.76470000     -29.95930000     -69.93280000
S      -49.31100000     -32.00430000     -70.93350000
S      -47.40540000     -29.46460000     -70.21950000
H      -44.93650000     -29.28120000     -69.62220000
