40
Properties=species:S:1:pos:R:3 #=T CELL(abcABC):=T 1.889726e+02=T 90.00000=T Traj:=T positionsangstrom=T Step:=T 0=T Bead:=T pbc="F F F"
C      -43.34850000     -33.77450000     -74.03830000
C      -42.53510000     -34.26360000     -73.04520000
C      -43.08560000     -35.41520000     -72.29080000
C      -44.22360000     -36.02130000     -72.77500000
C      -45.07420000     -35.45140000     -73.76280000
C      -44.61890000     -34.32790000     -74.46260000
H      -42.98710000     -32.95090000     -74.59500000
H      -42.62190000     -35.74110000     -71.38250000
H      -46.01730000     -35.81940000     -73.97020000
H      -45.23930000     -33.82160000     -75.20650000
C      -44.66260000     -37.32090000     -72.15660000
H      -43.86120000     -37.93150000     -72.03680000
H      -45.45570000     -37.81990000     -72.70980000
C      -41.29500000     -33.62000000     -72.41950000
H      -40.46160000     -34.37070000     -72.22030000
H      -40.89540000     -32.90300000     -73.09960000
S      -45.29870000     -37.13500000     -70.45010000
S      -41.70700000     -32.76690000     -70.80770000
C      -46.65890000     -35.81490000     -70.59370000
H      -46.85660000     -35.90460000     -71.66560000
H      -47.39220000     -36.04260000     -69.77410000
C      -43.32040000     -31.96670000     -71.03580000
H      -43.84220000     -32.68620000     -71.70640000
H      -43.16580000     -31.05890000     -71.57390000
C      -44.05320000     -31.75450000     -69.70950000
H      -44.13360000     -32.72240000     -69.16290000
H      -43.65090000     -30.97060000     -69.11370000
C      -46.03820000     -34.44130000     -70.34630000
H      -45.12010000     -34.37630000     -70.93120000
H      -45.67300000     -34.40100000     -69.32250000
C      -47.02290000     -33.36980000     -70.54910000
C      -48.33820000     -33.58020000     -70.87140000
C      -46.70740000     -31.95960000     -70.34840000
H      -48.87950000     -34.48610000     -71.02430000
C      -47.80400000     -31.18330000     -70.66820000
C      -45.50140000     -31.22240000     -69.97910000
C      -45.79510000     -29.88090000     -70.12790000
S      -49.27140000     -32.04590000     -71.00060000
S      -47.43880000     -29.50760000     -70.57910000
H      -45.04030000     -29.15860000     -69.81760000
