40
Properties=species:S:1:pos:R:3 #=T CELL(abcABC):=T 1.889726e+02=T 90.00000=T Traj:=T positionsangstrom=T Step:=T 0=T Bead:=T pbc="F F F"
C      -43.36590000     -33.76720000     -74.14020000
C      -42.66470000     -34.32770000     -73.04090000
C      -43.11120000     -35.50340000     -72.37900000
C      -44.34180000     -36.05240000     -72.82600000
C      -45.04590000     -35.40670000     -73.85160000
C      -44.58190000     -34.27950000     -74.55490000
H      -43.01430000     -32.90190000     -74.62980000
H      -42.40640000     -36.11650000     -71.80250000
H      -46.00760000     -35.90820000     -74.14920000
H      -45.10490000     -33.88480000     -75.40750000
C      -44.77960000     -37.43180000     -72.15350000
H      -43.97830000     -38.15590000     -72.16830000
H      -45.72490000     -37.92240000     -72.69790000
C      -41.44380000     -33.63280000     -72.50550000
H      -40.65460000     -34.47100000     -72.35160000
H      -41.06560000     -32.85730000     -73.15670000
S      -45.22950000     -37.14690000     -70.35660000
S      -41.76500000     -32.91310000     -70.76330000
C      -46.60110000     -35.86650000     -70.18000000
H      -47.37760000     -35.82770000     -71.00730000
H      -47.13900000     -36.29390000     -69.39820000
C      -43.35060000     -31.99700000     -71.10960000
H      -44.00520000     -32.69120000     -71.65470000
H      -43.04450000     -31.27220000     -71.85460000
C      -44.02010000     -31.40980000     -69.88790000
H      -43.97260000     -32.11350000     -69.07210000
H      -43.53790000     -30.43090000     -69.68850000
C      -46.03330000     -34.49110000     -69.92130000
H      -45.13940000     -34.42250000     -70.55890000
H      -45.66650000     -34.48200000     -68.87780000
C      -46.95720000     -33.31240000     -70.27110000
C      -48.29850000     -33.58170000     -70.43110000
C      -46.61680000     -31.85860000     -70.33300000
H      -48.84270000     -34.46340000     -70.53200000
C      -47.77680000     -31.18350000     -70.76200000
C      -45.47580000     -31.00560000     -70.08240000
C      -45.76860000     -29.69150000     -70.32490000
S      -49.25340000     -32.12580000     -70.93820000
S      -47.39530000     -29.48580000     -70.94250000
H      -45.13030000     -28.85060000     -70.18290000
