40
Properties=species:S:1:pos:R:3 #=T CELL(abcABC):=T 1.889726e+02=T 90.00000=T Traj:=T positionsangstrom=T Step:=T 0=T Bead:=T pbc="F F F"
C      -48.18750000     -36.44400000     -68.94230000
C      -47.19370000     -35.47210000     -69.07760000
C      -47.32640000     -34.43620000     -70.00740000
C      -48.36050000     -34.44630000     -70.95210000
C      -49.27360000     -35.49240000     -70.83000000
C      -49.20630000     -36.47230000     -69.84120000
H      -48.07430000     -37.23850000     -68.13970000
H      -46.54940000     -33.64590000     -70.01260000
H      -50.09540000     -35.62160000     -71.56930000
H      -49.93380000     -37.24490000     -69.97810000
C      -48.65000000     -33.23970000     -71.90540000
H      -49.34630000     -32.60810000     -71.41550000
H      -49.13270000     -33.50350000     -72.83640000
C      -46.06520000     -35.46280000     -68.07840000
H      -46.45810000     -34.86120000     -67.29050000
H      -46.00910000     -36.45550000     -67.68860000
S      -47.11790000     -32.36680000     -72.55010000
S      -44.36640000     -34.93410000     -68.63710000
C      -46.68920000     -33.37410000     -73.95720000
H      -47.00200000     -34.39660000     -73.80810000
H      -47.32680000     -32.96290000     -74.74700000
C      -44.19630000     -35.79920000     -70.26330000
H      -44.93350000     -36.55420000     -70.35690000
H      -43.19220000     -36.24770000     -70.32600000
C      -44.30930000     -34.82120000     -71.50600000
H      -43.83570000     -35.35340000     -72.33740000
H      -45.32160000     -34.52330000     -71.78940000
C      -45.16160000     -33.26070000     -74.34200000
H      -45.05160000     -33.22280000     -75.34920000
H      -44.68260000     -34.19820000     -73.98390000
C      -44.35020000     -32.15790000     -73.67620000
C      -44.10750000     -30.87260000     -74.22920000
C      -43.70720000     -32.35800000     -72.41130000
H      -44.46570000     -30.62570000     -75.22890000
C      -42.99780000     -31.25970000     -72.00890000
C      -43.60660000     -33.46440000     -71.47490000
C      -42.73150000     -33.15110000     -70.45080000
S      -43.12850000     -29.86450000     -73.14950000
S      -42.07160000     -31.50530000     -70.54950000
H      -42.47660000     -33.64280000     -69.54630000
