40
Properties=species:S:1:pos:R:3 #=T CELL(abcABC):=T 1.889726e+02=T 90.00000=T Traj:=T positionsangstrom=T Step:=T 0=T Bead:=T pbc="F F F"
C      -45.69760000     -36.30780000     -67.99180000
C      -45.79910000     -34.93300000     -67.94310000
C      -44.71100000     -34.21440000     -68.35220000
C      -43.46010000     -34.83250000     -68.65240000
C      -43.39280000     -36.23440000     -68.74760000
C      -44.50950000     -37.03140000     -68.49400000
H      -46.46140000     -36.98680000     -67.60260000
H      -44.71490000     -33.12420000     -68.30140000
H      -42.58620000     -36.87880000     -68.99310000
H      -44.51260000     -38.07370000     -68.62010000
C      -42.23540000     -33.95890000     -68.67330000
H      -41.28280000     -34.44500000     -68.90410000
H      -42.06480000     -33.58180000     -67.64330000
C      -47.11530000     -34.27230000     -67.64450000
H      -47.87330000     -34.93330000     -68.09680000
H      -47.25590000     -34.23410000     -66.56540000
S      -42.49010000     -32.41090000     -69.72240000
S      -47.41930000     -32.65880000     -68.44080000
C      -43.39060000     -33.03970000     -71.21420000
H      -43.08820000     -34.07170000     -71.47770000
H      -44.38900000     -33.21640000     -70.86910000
C      -47.40920000     -33.20440000     -70.25950000
H      -48.46970000     -33.39310000     -70.45360000
H      -46.85210000     -34.16160000     -70.22430000
C      -46.76130000     -32.28110000     -71.16990000
H      -47.26810000     -31.33070000     -71.34930000
H      -45.78280000     -32.05780000     -70.79990000
C      -43.36500000     -32.09340000     -72.38890000
H      -42.27350000     -31.91600000     -72.70650000
H      -43.74910000     -31.07540000     -71.99800000
C      -44.23590000     -32.43230000     -73.53870000
C      -43.73980000     -32.25750000     -74.81440000
C      -45.66890000     -32.61450000     -73.56420000
H      -42.65530000     -32.09870000     -75.01280000
C      -46.12070000     -32.75050000     -74.90330000
C      -46.74530000     -32.85350000     -72.60590000
C      -47.94200000     -33.17500000     -73.25550000
S      -44.85710000     -32.36870000     -76.08290000
S      -47.83910000     -32.98300000     -75.04100000
H      -48.92530000     -33.31740000     -72.85450000
