40
Properties=species:S:1:pos:R:3 #=T CELL(abcABC):=T 1.889726e+02=T 90.00000=T Traj:=T positionsangstrom=T Step:=T 0=T Bead:=T pbc="F F F"
C      -47.54990000     -35.91550000     -69.79160000
C      -47.84620000     -34.74890000     -69.08060000
C      -48.37620000     -33.61720000     -69.79780000
C      -48.57230000     -33.64110000     -71.13520000
C      -48.25420000     -34.81030000     -71.85720000
C      -47.72110000     -35.86740000     -71.17020000
H      -47.18740000     -36.71150000     -69.19250000
H      -48.55770000     -32.67850000     -69.25850000
H      -48.24950000     -34.88070000     -72.92480000
H      -47.58010000     -36.79830000     -71.76320000
C      -49.16420000     -32.53430000     -71.87050000
H      -49.70830000     -31.79160000     -71.29000000
H      -49.82240000     -32.83840000     -72.67700000
C      -47.43590000     -34.54140000     -67.64910000
H      -47.76800000     -33.56110000     -67.34830000
H      -47.85000000     -35.28040000     -66.91510000
S      -47.84770000     -31.44590000     -72.65040000
S      -45.58540000     -34.62600000     -67.45540000
C      -47.03720000     -32.45980000     -73.99650000
H      -47.85300000     -33.16830000     -74.35850000
H      -46.69210000     -31.66260000     -74.74320000
C      -44.78960000     -34.63410000     -69.15900000
H      -45.36060000     -35.39130000     -69.76520000
H      -43.79950000     -35.10580000     -69.01600000
C      -44.77440000     -33.29530000     -69.87680000
H      -45.71020000     -33.31920000     -70.37230000
H      -44.60910000     -32.39310000     -69.17470000
C      -45.78040000     -33.29400000     -73.51980000
H      -45.69910000     -34.04160000     -74.29680000
H      -45.97270000     -33.91440000     -72.62050000
C      -44.35660000     -32.71160000     -73.37150000
C      -43.63460000     -32.29820000     -74.45550000
C      -43.44520000     -32.92040000     -72.20150000
H      -44.06240000     -32.19410000     -75.43140000
C      -42.11920000     -32.69910000     -72.56700000
C      -43.50520000     -33.36620000     -70.84890000
C      -42.28180000     -33.40010000     -70.22840000
S      -41.89860000     -32.02740000     -74.15860000
S      -41.01080000     -32.94800000     -71.32470000
H      -42.03920000     -33.89170000     -69.30760000
