40
Properties=species:S:1:pos:R:3 #=T CELL(abcABC):=T 1.889726e+02=T 90.00000=T Traj:=T positionsangstrom=T Step:=T 0=T Bead:=T pbc="F F F"
C      -44.88830000     -36.94630000     -70.01670000
C      -45.30590000     -35.93000000     -69.07870000
C      -44.40810000     -35.00010000     -68.58100000
C      -43.06630000     -35.08270000     -68.90280000
C      -42.65550000     -36.12780000     -69.75160000
C      -43.54460000     -36.98060000     -70.36340000
H      -45.54310000     -37.65770000     -70.45160000
H      -44.75780000     -34.23710000     -67.82030000
H      -41.60450000     -36.16850000     -69.91550000
H      -43.25780000     -37.76270000     -71.02350000
C      -42.10820000     -33.93780000     -68.67630000
H      -41.25080000     -34.09260000     -69.45840000
H      -41.62170000     -33.86260000     -67.67740000
C      -46.73000000     -35.85680000     -68.51670000
H      -47.27730000     -36.67050000     -69.11300000
H      -46.74540000     -36.11400000     -67.45860000
S      -42.89830000     -32.32380000     -69.10810000
S      -47.62500000     -34.19860000     -68.68230000
C      -43.31310000     -32.52680000     -70.85010000
H      -42.40630000     -32.56910000     -71.42080000
H      -43.88940000     -33.48360000     -71.01550000
C      -47.23380000     -33.94570000     -70.55330000
H      -47.80830000     -34.66710000     -71.21450000
H      -46.16960000     -34.12690000     -70.78210000
C      -47.65810000     -32.56420000     -70.92840000
H      -48.76930000     -32.41650000     -70.73810000
H      -47.03800000     -31.87880000     -70.36320000
C      -44.24390000     -31.33520000     -71.23010000
H      -43.78170000     -30.34360000     -71.09250000
H      -45.08790000     -31.37650000     -70.55010000
C      -44.75010000     -31.50530000     -72.62580000
C      -43.87920000     -31.36950000     -73.74060000
C      -46.10210000     -31.88390000     -73.00310000
H      -42.71250000     -31.22490000     -73.71350000
C      -46.12360000     -31.99260000     -74.38250000
C      -47.38890000     -32.25540000     -72.41490000
C      -48.33310000     -32.62930000     -73.34640000
S      -44.67980000     -31.60310000     -75.27450000
S      -47.64890000     -32.44230000     -75.05050000
H      -49.39810000     -32.93530000     -73.17610000
