40
Properties=species:S:1:pos:R:3 #=T CELL(abcABC):=T 1.889726e+02=T 90.00000=T Traj:=T positionsangstrom=T Step:=T 0=T Bead:=T pbc="F F F"
C      -44.80240000     -36.91650000     -69.98390000
C      -45.17970000     -35.97850000     -69.02080000
C      -44.16020000     -35.19980000     -68.41700000
C      -42.89180000     -35.10880000     -68.94930000
C      -42.59350000     -36.03310000     -70.03700000
C      -43.52500000     -36.97340000     -70.48720000
H      -45.42430000     -37.73550000     -70.35470000
H      -44.43670000     -34.43100000     -67.62410000
H      -41.55250000     -35.88650000     -70.57760000
H      -43.30910000     -37.77100000     -71.20840000
C      -42.08200000     -33.95620000     -68.49320000
H      -41.02030000     -34.05750000     -68.76150000
H      -42.05520000     -34.01230000     -67.41220000
C      -46.59190000     -35.99110000     -68.61630000
H      -47.09480000     -36.83810000     -68.95390000
H      -46.75030000     -36.01150000     -67.52370000
S      -42.80800000     -32.27450000     -68.91050000
S      -47.52720000     -34.40880000     -68.98000000
C      -43.38300000     -32.56520000     -70.67460000
H      -42.47390000     -32.43740000     -71.43270000
H      -43.77360000     -33.54030000     -70.91990000
C      -47.19630000     -33.99700000     -70.68280000
H      -47.67070000     -34.67660000     -71.33820000
H      -46.09720000     -34.02170000     -70.92680000
C      -47.63720000     -32.54260000     -70.98470000
H      -48.62300000     -32.25360000     -70.66410000
H      -46.96250000     -31.86450000     -70.40960000
C      -44.45120000     -31.48610000     -71.11920000
H      -43.97660000     -30.47320000     -71.04940000
H      -45.30910000     -31.50740000     -70.45640000
C      -44.89250000     -31.52940000     -72.52550000
C      -44.01080000     -31.10840000     -73.58030000
C      -46.20810000     -31.95750000     -73.06440000
H      -42.99350000     -30.86330000     -73.53970000
C      -46.22560000     -31.97910000     -74.44690000
C      -47.49250000     -32.25710000     -72.47290000
C      -48.41650000     -32.45320000     -73.42920000
S      -44.67970000     -31.48870000     -75.17390000
S      -47.84030000     -32.35060000     -75.06060000
H      -49.40580000     -32.70240000     -73.26120000
