40
Properties=species:S:1:pos:R:3 #=T CELL(abcABC):=T 1.889726e+02=T 90.00000=T Traj:=T positionsangstrom=T Step:=T 0=T Bead:=T pbc="F F F"
C      -45.97240000     -35.54200000     -75.29110000
C      -46.21210000     -34.34820000     -74.60680000
C      -46.98510000     -34.35860000     -73.49710000
C      -47.55800000     -35.56260000     -73.03910000
C      -47.20180000     -36.74810000     -73.60370000
C      -46.40190000     -36.77260000     -74.77430000
H      -45.29930000     -35.52650000     -76.09420000
H      -47.27620000     -33.45420000     -73.00610000
H      -47.48460000     -37.73840000     -73.21720000
H      -46.20170000     -37.60470000     -75.37300000
C      -48.36330000     -35.62500000     -71.76060000
H      -49.17000000     -36.34920000     -71.93040000
H      -48.95020000     -34.66770000     -71.56170000
C      -45.63480000     -33.04970000     -75.02300000
H      -45.71590000     -32.83250000     -76.11410000
H      -46.03460000     -32.19070000     -74.52650000
S      -47.43460000     -36.13380000     -70.28510000
S      -43.75310000     -32.92000000     -74.88730000
C      -46.08250000     -34.90070000     -70.04680000
H      -45.67590000     -35.11740000     -69.05160000
H      -45.38500000     -34.98200000     -70.86450000
C      -43.60660000     -31.94770000     -73.24990000
H      -44.26030000     -31.05480000     -73.31690000
H      -42.48530000     -31.64060000     -73.12450000
C      -44.00980000     -32.76970000     -72.02010000
H      -45.02890000     -33.04330000     -72.20720000
H      -43.37520000     -33.65220000     -71.97620000
C      -46.67430000     -33.51670000     -69.94080000
H      -47.74200000     -33.48740000     -69.52160000
H      -46.79250000     -33.08980000     -70.88090000
C      -45.82440000     -32.67170000     -69.08230000
C      -46.06610000     -32.48700000     -67.76010000
C      -44.62680000     -32.04190000     -69.53070000
H      -46.96840000     -32.73600000     -67.20160000
C      -44.04120000     -31.30370000     -68.51590000
C      -43.73130000     -32.03480000     -70.72960000
C      -42.62920000     -31.18370000     -70.51940000
S      -44.92160000     -31.36040000     -67.01820000
S      -42.51160000     -30.57980000     -68.84140000
H      -42.03910000     -30.84540000     -71.36740000
