40
Properties=species:S:1:pos:R:3 #=T CELL(abcABC):=T 1.889726e+02=T 90.00000=T Traj:=T positionsangstrom=T Step:=T 0=T Bead:=T pbc="F F F"
C      -44.93200000     -35.59020000     -74.79290000
C      -45.86160000     -34.55750000     -74.61310000
C      -46.82360000     -34.69930000     -73.61730000
C      -47.09420000     -35.92730000     -72.94640000
C      -46.24450000     -36.98120000     -73.17610000
C      -45.18820000     -36.79000000     -74.08170000
H      -44.16360000     -35.54980000     -75.61430000
H      -47.52930000     -33.90070000     -73.53310000
H      -46.35640000     -37.96540000     -72.75330000
H      -44.39900000     -37.50790000     -74.18200000
C      -48.26230000     -35.94000000     -72.02750000
H      -48.92440000     -36.76630000     -72.30520000
H      -48.84430000     -35.04510000     -72.18880000
C      -45.74500000     -33.20360000     -75.36800000
H      -45.74050000     -33.38240000     -76.45370000
H      -46.60840000     -32.58710000     -75.21280000
S      -47.94010000     -36.05050000     -70.25350000
S      -44.19640000     -32.26840000     -74.86400000
C      -46.50270000     -34.80880000     -70.02020000
H      -46.12850000     -35.02200000     -69.00030000
H      -45.69640000     -35.07950000     -70.77850000
C      -44.49670000     -31.58050000     -73.13630000
H      -45.57300000     -31.15800000     -73.02330000
H      -43.79910000     -30.75270000     -73.02920000
C      -44.09270000     -32.62300000     -72.13930000
H      -44.85890000     -33.35530000     -72.11160000
H      -43.26250000     -33.20980000     -72.44200000
C      -46.91230000     -33.35060000     -70.14070000
H      -47.86070000     -33.37180000     -69.65330000
H      -47.03660000     -32.99960000     -71.16450000
C      -45.93950000     -32.46520000     -69.29350000
C      -46.32350000     -32.16790000     -67.97710000
C      -44.55870000     -32.15970000     -69.58850000
H      -47.11640000     -32.52340000     -67.33940000
C      -43.97750000     -31.50980000     -68.48490000
C      -43.71770000     -32.12080000     -70.76610000
C      -42.55160000     -31.47590000     -70.56740000
S      -45.02050000     -31.31900000     -67.09250000
S      -42.37140000     -30.89920000     -68.89470000
H      -41.68450000     -31.42330000     -71.26460000
