40
Properties=species:S:1:pos:R:3 #=T CELL(abcABC):=T 1.889726e+02=T 90.00000=T Traj:=T positionsangstrom=T Step:=T 0=T Bead:=T pbc="F F F"
C      -43.41290000     -36.50450000     -71.65450000
C      -43.87470000     -36.16470000     -70.39220000
C      -43.22470000     -35.19320000     -69.68180000
C      -42.17290000     -34.46190000     -70.21120000
C      -41.71360000     -34.76700000     -71.53660000
C      -42.36590000     -35.75760000     -72.29980000
H      -43.86990000     -37.29780000     -72.23940000
H      -43.40870000     -35.14920000     -68.60170000
H      -40.83940000     -34.15860000     -71.93090000
H      -42.21420000     -35.92090000     -73.36410000
C      -41.47310000     -33.37900000     -69.47540000
H      -40.58510000     -32.90640000     -69.87400000
H      -41.10110000     -33.75000000     -68.53950000
C      -44.89330000     -37.01910000     -69.66700000
H      -45.22650000     -37.91280000     -70.26130000
H      -44.51040000     -37.55230000     -68.85090000
S      -42.63060000     -31.98820000     -68.87250000
S      -46.44170000     -36.10690000     -69.21930000
C      -43.53570000     -31.42200000     -70.34810000
H      -43.71430000     -30.35790000     -70.30880000
H      -43.01860000     -31.59950000     -71.35760000
C      -46.95540000     -35.30620000     -70.84180000
H      -47.43780000     -36.01990000     -71.43740000
H      -46.07330000     -35.05870000     -71.31710000
C      -47.87550000     -34.07220000     -70.64520000
H      -48.92330000     -34.45150000     -70.58580000
H      -47.66300000     -33.49670000     -69.76030000
C      -45.03540000     -32.01680000     -70.42960000
H      -45.64440000     -31.65990000     -69.62140000
H      -45.04120000     -33.11280000     -70.48800000
C      -45.69170000     -31.50930000     -71.69580000
C      -45.26870000     -30.56020000     -72.57850000
C      -46.96880000     -32.10210000     -72.22380000
H      -44.34760000     -29.92900000     -72.49140000
C      -47.32170000     -31.50330000     -73.44370000
C      -47.84670000     -33.16030000     -71.86170000
C      -48.91730000     -33.29270000     -72.81600000
S      -46.29270000     -30.21910000     -73.94110000
S      -48.85950000     -32.04830000     -74.05900000
H      -49.78280000     -33.94990000     -72.65440000
