40
Properties=species:S:1:pos:R:3 #=T CELL(abcABC):=T 1.889726e+02=T 90.00000=T Traj:=T positionsangstrom=T Step:=T 0=T Bead:=T pbc="F F F"
C      -42.77460000     -36.57350000     -71.77650000
C      -43.61450000     -36.13560000     -70.69100000
C      -43.33880000     -34.97270000     -69.90210000
C      -42.14240000     -34.29900000     -70.14250000
C      -41.36830000     -34.62250000     -71.32190000
C      -41.66370000     -35.74680000     -72.07350000
H      -43.00790000     -37.52220000     -72.31640000
H      -43.93910000     -34.82180000     -69.01600000
H      -40.63930000     -33.86490000     -71.55930000
H      -41.16920000     -35.99980000     -72.94150000
C      -41.65220000     -33.18440000     -69.27600000
H      -40.66240000     -32.80300000     -69.62520000
H      -41.23960000     -33.66860000     -68.33930000
C      -44.68930000     -37.08120000     -70.15440000
H      -44.93980000     -37.81830000     -70.90270000
H      -44.23790000     -37.71700000     -69.37410000
S      -42.72790000     -31.78900000     -68.87350000
S      -46.27740000     -36.32700000     -69.66690000
C      -43.76540000     -31.59560000     -70.41420000
H      -43.64420000     -30.54240000     -70.68760000
H      -43.27690000     -32.21590000     -71.11900000
C      -46.73230000     -35.09670000     -70.91890000
H      -47.18680000     -35.55080000     -71.79110000
H      -45.91790000     -34.51120000     -71.27820000
C      -47.72620000     -34.03780000     -70.45880000
H      -48.62920000     -34.44090000     -69.97330000
H      -47.24820000     -33.45180000     -69.66030000
C      -45.19660000     -31.95770000     -70.31880000
H      -45.60180000     -31.37640000     -69.41780000
H      -45.22710000     -33.02930000     -70.25770000
C      -45.94580000     -31.52920000     -71.56610000
C      -45.57320000     -30.44490000     -72.39570000
C      -47.17380000     -32.06260000     -72.11050000
H      -44.65360000     -29.89990000     -72.24810000
C      -47.63710000     -31.50370000     -73.31190000
C      -48.03750000     -33.16600000     -71.66900000
C      -49.07900000     -33.33690000     -72.56430000
S      -46.49630000     -30.27130000     -73.84700000
S      -48.96480000     -32.31760000     -73.99860000
H      -49.69770000     -34.22630000     -72.59570000
