40
Properties=species:S:1:pos:R:3 #=T CELL(abcABC):=T 1.889726e+02=T 90.00000=T Traj:=T positionsangstrom=T Step:=T 0=T Bead:=T pbc="F F F"
C      -42.65670000     -36.52760000     -71.82560000
C      -43.44700000     -36.28950000     -70.67560000
C      -43.11210000     -35.28720000     -69.77820000
C      -42.10280000     -34.35510000     -70.07880000
C      -41.28190000     -34.54920000     -71.20800000
C      -41.60750000     -35.67540000     -72.06810000
H      -43.00090000     -37.32200000     -72.48070000
H      -43.83520000     -35.14980000     -68.94800000
H      -40.48960000     -33.86650000     -71.37550000
H      -41.12010000     -35.84820000     -73.04010000
C      -41.70820000     -33.20370000     -69.20510000
H      -40.90530000     -32.64440000     -69.61280000
H      -41.61890000     -33.60840000     -68.19130000
C      -44.63210000     -37.17530000     -70.50300000
H      -45.05230000     -37.64110000     -71.38810000
H      -44.29990000     -37.92580000     -69.74540000
S      -43.04280000     -31.86560000     -68.80880000
S      -46.12740000     -36.38040000     -69.68800000
C      -43.66260000     -31.28150000     -70.42530000
H      -43.55210000     -30.15900000     -70.61610000
H      -43.04950000     -31.75580000     -71.18720000
C      -46.50590000     -35.17340000     -71.03540000
H      -46.91720000     -35.76420000     -71.83890000
H      -45.58430000     -34.68620000     -71.46040000
C      -47.56520000     -34.20370000     -70.54310000
H      -48.46280000     -34.74560000     -70.23150000
H      -47.28030000     -33.68020000     -69.58520000
C      -45.15490000     -31.61380000     -70.38510000
H      -45.51750000     -30.95400000     -69.62640000
H      -45.47490000     -32.58070000     -69.89080000
C      -45.90580000     -31.39520000     -71.69970000
C      -45.61510000     -30.27920000     -72.57220000
C      -47.05410000     -32.11710000     -72.13370000
H      -44.80390000     -29.61140000     -72.48390000
C      -47.65630000     -31.57870000     -73.25000000
C      -47.89130000     -33.19580000     -71.63070000
C      -48.97700000     -33.46860000     -72.44130000
S      -46.79000000     -30.16830000     -73.91600000
S      -49.10180000     -32.32580000     -73.80040000
H      -49.76370000     -34.12310000     -72.22700000
