40
Properties=species:S:1:pos:R:3 #=T CELL(abcABC):=T 1.889726e+02=T 90.00000=T Traj:=T positionsangstrom=T Step:=T 0=T Bead:=T pbc="F F F"
C      -42.48740000     -36.44710000     -71.86510000
C      -43.22720000     -36.27600000     -70.70460000
C      -43.00160000     -35.17220000     -69.86060000
C      -41.96750000     -34.28160000     -70.09440000
C      -41.19580000     -34.39380000     -71.26220000
C      -41.42290000     -35.47480000     -72.12880000
H      -42.73170000     -37.15810000     -72.69520000
H      -43.70060000     -34.89980000     -69.13390000
H      -40.49940000     -33.62270000     -71.61340000
H      -40.81530000     -35.45600000     -73.07200000
C      -41.65750000     -33.11620000     -69.22200000
H      -40.81350000     -32.53460000     -69.64810000
H      -41.22160000     -33.42860000     -68.28490000
C      -44.37660000     -37.21010000     -70.33200000
H      -44.52990000     -37.79600000     -71.24150000
H      -44.19170000     -37.89000000     -69.48180000
S      -43.25690000     -32.25600000     -68.88310000
S      -45.88600000     -36.27160000     -69.77640000
C      -43.62990000     -31.67270000     -70.56590000
H      -43.32070000     -30.64170000     -70.62610000
H      -43.07240000     -32.25000000     -71.36250000
C      -46.29680000     -35.11360000     -71.09480000
H      -46.73540000     -35.62160000     -71.91570000
H      -45.36540000     -34.72560000     -71.44900000
C      -47.37710000     -34.13820000     -70.51180000
H      -48.23570000     -34.76980000     -70.18400000
H      -47.11050000     -33.51500000     -69.64950000
C      -45.22290000     -31.76920000     -70.55900000
H      -45.52430000     -30.98950000     -69.74260000
H      -45.51690000     -32.79610000     -70.33170000
C      -45.97740000     -31.40960000     -71.83290000
C      -45.69830000     -30.33400000     -72.66470000
C      -47.17630000     -32.12920000     -72.11270000
H      -44.85530000     -29.61320000     -72.48120000
C      -47.80730000     -31.53020000     -73.18000000
C      -47.96420000     -33.16380000     -71.54090000
C      -49.10280000     -33.40460000     -72.26620000
S      -46.99890000     -30.12680000     -73.81700000
S      -49.36370000     -32.21170000     -73.57060000
H      -49.66250000     -34.32170000     -72.24990000
