40
Properties=species:S:1:pos:R:3 #=T CELL(abcABC):=T 1.889726e+02=T 90.00000=T Traj:=T positionsangstrom=T Step:=T 0=T Bead:=T pbc="F F F"
C      -46.68210000     -37.05810000     -70.16580000
C      -45.40850000     -36.66170000     -70.63950000
C      -45.34090000     -36.23120000     -71.96360000
C      -46.41510000     -36.26220000     -72.84330000
C      -47.61040000     -36.74610000     -72.32240000
C      -47.82100000     -37.13500000     -70.96410000
H      -46.70830000     -37.35350000     -69.09750000
H      -44.38820000     -35.93140000     -72.30680000
H      -48.43840000     -36.86850000     -73.00770000
H      -48.84170000     -37.33050000     -70.71370000
C      -46.31580000     -35.71220000     -74.24020000
H      -46.58970000     -36.39630000     -75.00660000
H      -45.26680000     -35.38160000     -74.31310000
C      -44.22690000     -36.68410000     -69.65650000
H      -44.02480000     -37.71940000     -69.36800000
H      -43.29620000     -36.35330000     -70.11390000
S      -47.28650000     -34.16640000     -74.44410000
S      -44.56310000     -35.69240000     -68.20460000
C      -46.37310000     -32.82540000     -73.45780000
H      -46.78790000     -31.95130000     -73.90180000
H      -46.81860000     -32.96410000     -72.46880000
C      -44.17080000     -33.97710000     -68.79170000
H      -43.32790000     -33.99280000     -69.43580000
H      -44.10270000     -33.37320000     -67.84240000
C      -45.35840000     -33.42920000     -69.61070000
H      -45.41040000     -34.01140000     -70.54580000
H      -46.25500000     -33.64260000     -69.07990000
C      -44.86250000     -33.00070000     -73.39330000
H      -44.53740000     -32.86020000     -74.41120000
H      -44.66410000     -33.93560000     -72.90140000
C      -44.29780000     -31.76930000     -72.58300000
C      -43.75980000     -30.67650000     -73.28830000
C      -44.66710000     -31.39200000     -71.19630000
H      -43.34570000     -30.82410000     -74.28480000
C      -44.40450000     -30.03230000     -71.06980000
C      -45.15160000     -31.91990000     -69.97530000
C      -45.35250000     -31.01470000     -68.98090000
S      -43.51960000     -29.19960000     -72.30500000
S      -44.75470000     -29.43320000     -69.47330000
H      -45.81490000     -31.25220000     -68.05990000
