40
Properties=species:S:1:pos:R:3 #=T CELL(abcABC):=T 1.889726e+02=T 90.00000=T Traj:=T positionsangstrom=T Step:=T 0=T Bead:=T pbc="F F F"
C      -46.88720000     -36.96610000     -70.25480000
C      -45.53090000     -36.79950000     -70.46330000
C      -45.10690000     -36.61300000     -71.79050000
C      -45.90310000     -36.44500000     -72.91680000
C      -47.27850000     -36.66620000     -72.69600000
C      -47.72570000     -36.94210000     -71.37490000
H      -47.27320000     -37.01910000     -69.23620000
H      -44.01840000     -36.47940000     -71.88040000
H      -48.00150000     -36.61840000     -73.52070000
H      -48.76270000     -37.08030000     -71.25270000
C      -45.33470000     -36.15220000     -74.27450000
H      -45.75430000     -36.84760000     -74.89630000
H      -44.22220000     -36.22620000     -74.28480000
C      -44.50940000     -36.81760000     -69.34530000
H      -44.46820000     -37.75020000     -68.81840000
H      -43.54260000     -36.79320000     -69.73980000
S      -46.04540000     -34.60550000     -74.99900000
S      -44.77260000     -35.56690000     -67.96380000
C      -46.18480000     -33.42190000     -73.56240000
H      -46.71450000     -32.51730000     -74.09210000
H      -46.80990000     -33.73910000     -72.75280000
C      -44.38440000     -33.93970000     -68.75740000
H      -43.52140000     -34.08640000     -69.37780000
H      -44.12220000     -33.21720000     -67.99910000
C      -45.53320000     -33.27480000     -69.63100000
H      -45.47280000     -33.81050000     -70.62930000
H      -46.43890000     -33.46440000     -69.05600000
C      -44.82500000     -32.97730000     -73.05010000
H      -44.09170000     -33.13160000     -73.81550000
H      -44.52950000     -33.62430000     -72.15580000
C      -44.71060000     -31.49530000     -72.51900000
C      -44.53040000     -30.44080000     -73.32510000
C      -44.82200000     -31.15750000     -71.08380000
H      -44.69810000     -30.33470000     -74.41140000
C      -44.51140000     -29.85650000     -70.87180000
C      -45.24360000     -31.82390000     -69.88110000
C      -45.26460000     -30.91350000     -68.83670000
S      -44.39190000     -28.91860000     -72.35590000
S      -44.91050000     -29.28170000     -69.33380000
H      -45.48450000     -31.09390000     -67.81720000
