40
Properties=species:S:1:pos:R:3 #=T CELL(abcABC):=T 1.889726e+02=T 90.00000=T Traj:=T positionsangstrom=T Step:=T 0=T Bead:=T pbc="F F F"
C      -46.78200000     -37.14920000     -70.50510000
C      -45.41240000     -36.95970000     -70.56730000
C      -44.81560000     -36.66670000     -71.78870000
C      -45.62350000     -36.50710000     -72.92720000
C      -47.00600000     -36.63620000     -72.87480000
C      -47.57700000     -37.00200000     -71.63710000
H      -47.46750000     -37.26610000     -69.63840000
H      -43.69440000     -36.71270000     -71.89980000
H      -47.66010000     -36.59830000     -73.72830000
H      -48.65680000     -37.05630000     -71.59450000
C      -44.92900000     -36.22400000     -74.25920000
H      -45.25580000     -36.86680000     -75.07950000
H      -43.83120000     -36.24750000     -74.21950000
C      -44.50610000     -37.09010000     -69.37290000
H      -44.56860000     -38.01120000     -68.85350000
H      -43.45520000     -37.15260000     -69.57980000
S      -45.41130000     -34.53090000     -74.98970000
S      -44.93670000     -35.76270000     -68.22440000
C      -45.87500000     -33.45530000     -73.59480000
H      -46.60860000     -32.69130000     -73.93630000
H      -46.39000000     -34.10000000     -72.81250000
C      -44.36830000     -34.15410000     -69.01740000
H      -43.78800000     -34.46360000     -69.91810000
H      -43.64740000     -33.72150000     -68.29080000
C      -45.57120000     -33.21360000     -69.41670000
H      -45.97220000     -33.67420000     -70.39170000
H      -46.37600000     -33.28170000     -68.69000000
C      -44.58550000     -32.91140000     -72.86970000
H      -43.85320000     -32.91220000     -73.63040000
H      -44.28730000     -33.62860000     -72.10860000
C      -44.81680000     -31.46190000     -72.31450000
C      -44.81210000     -30.38050000     -73.18660000
C      -44.99410000     -31.08150000     -70.92840000
H      -44.64970000     -30.52790000     -74.28260000
C      -44.92830000     -29.66440000     -70.77520000
C      -45.33330000     -31.75340000     -69.62950000
C      -45.58670000     -30.71690000     -68.68370000
S      -44.73020000     -28.85070000     -72.28030000
S      -45.38460000     -29.04350000     -69.24610000
H      -45.96550000     -30.92990000     -67.68480000
