40
Properties=species:S:1:pos:R:3 #=T CELL(abcABC):=T 1.889726e+02=T 90.00000=T Traj:=T positionsangstrom=T Step:=T 0=T Bead:=T pbc="F F F"
C      -46.78190000     -37.10950000     -70.62030000
C      -45.39990000     -36.96590000     -70.59390000
C      -44.73690000     -36.72950000     -71.82580000
C      -45.51060000     -36.52340000     -72.99720000
C      -46.90890000     -36.52320000     -72.95540000
C      -47.53800000     -36.92460000     -71.74930000
H      -47.36530000     -37.51820000     -69.82250000
H      -43.67600000     -36.59290000     -71.96820000
H      -47.56870000     -36.12560000     -73.72020000
H      -48.61460000     -37.10810000     -71.70540000
C      -44.79050000     -36.08160000     -74.26190000
H      -44.78110000     -36.83950000     -75.04650000
H      -43.69710000     -36.04770000     -73.94920000
C      -44.56440000     -36.98340000     -69.36510000
H      -44.86690000     -37.80340000     -68.72530000
H      -43.45250000     -37.01550000     -69.66850000
S      -45.31850000     -34.53310000     -75.02850000
S      -44.78680000     -35.58440000     -68.20900000
C      -45.76160000     -33.33310000     -73.70830000
H      -46.05690000     -32.45330000     -74.30230000
H      -46.57590000     -33.69990000     -73.19730000
C      -44.50760000     -33.99670000     -69.10590000
H      -43.88050000     -34.14930000     -69.99080000
H      -43.95610000     -33.33520000     -68.43020000
C      -45.78560000     -33.32270000     -69.49620000
H      -46.33860000     -33.79850000     -70.34100000
H      -46.37400000     -33.44960000     -68.62660000
C      -44.61580000     -33.02490000     -72.73140000
H      -43.64690000     -33.02350000     -73.23910000
H      -44.62260000     -33.75170000     -71.87160000
C      -44.71550000     -31.53880000     -72.19500000
C      -44.40990000     -30.42030000     -72.98600000
C      -45.26240000     -31.13350000     -70.92720000
H      -43.91970000     -30.42370000     -73.95980000
C      -45.31740000     -29.73190000     -70.83000000
C      -45.64250000     -31.83290000     -69.72260000
C      -45.71730000     -30.90660000     -68.68590000
S      -44.70240000     -28.89910000     -72.21230000
S      -45.51850000     -29.20100000     -69.14140000
H      -45.79910000     -31.11320000     -67.65890000
