40
Properties=species:S:1:pos:R:3 #=T CELL(abcABC):=T 1.889726e+02=T 90.00000=T Traj:=T positionsangstrom=T Step:=T 0=T Bead:=T pbc="F F F"
C      -46.66060000     -36.90530000     -70.67430000
C      -45.23750000     -36.71630000     -70.60610000
C      -44.50440000     -36.26570000     -71.69810000
C      -45.11310000     -36.14620000     -72.96870000
C      -46.53770000     -36.35640000     -73.03630000
C      -47.28440000     -36.70510000     -71.89250000
H      -47.11520000     -37.30970000     -69.78620000
H      -43.45340000     -36.04400000     -71.60850000
H      -47.07200000     -36.29840000     -73.98730000
H      -48.39770000     -36.76460000     -72.01050000
C      -44.33810000     -35.73850000     -74.16830000
H      -44.19140000     -36.60480000     -74.83870000
H      -43.24840000     -35.42450000     -74.02080000
C      -44.46400000     -36.82540000     -69.33040000
H      -44.62710000     -37.73200000     -68.67140000
H      -43.41010000     -36.94820000     -69.41870000
S      -45.15310000     -34.45010000     -75.19510000
S      -44.79490000     -35.55440000     -68.00090000
C      -45.66390000     -33.19790000     -73.90650000
H      -45.90680000     -32.35040000     -74.49120000
H      -46.58340000     -33.50500000     -73.40700000
C      -44.61610000     -33.95170000     -68.84740000
H      -43.75830000     -34.02430000     -69.49350000
H      -44.24270000     -33.24450000     -68.09200000
C      -45.92660000     -33.61320000     -69.60640000
H      -45.96000000     -34.16610000     -70.52250000
H      -46.74050000     -34.02360000     -68.98040000
C      -44.59230000     -33.01700000     -72.88010000
H      -43.64050000     -33.01700000     -73.40420000
H      -44.57770000     -33.76550000     -72.08630000
C      -44.73290000     -31.66200000     -72.21770000
C      -44.25870000     -30.51850000     -72.81950000
C      -45.38680000     -31.31880000     -70.97170000
H      -43.83560000     -30.47150000     -73.77450000
C      -45.32530000     -29.92590000     -70.72140000
C      -45.97990000     -32.10980000     -69.89780000
C      -46.43010000     -31.25320000     -68.96170000
S      -44.53420000     -28.98880000     -71.94050000
S      -46.23160000     -29.57720000     -69.27400000
H      -46.99120000     -31.51950000     -68.04420000
