40
Properties=species:S:1:pos:R:3 #=T CELL(abcABC):=T 1.889726e+02=T 90.00000=T Traj:=T positionsangstrom=T Step:=T 0=T Bead:=T pbc="F F F"
C      -46.45200000     -37.02420000     -70.59290000
C      -45.08730000     -36.75080000     -70.60280000
C      -44.35640000     -36.35570000     -71.77630000
C      -45.04750000     -36.07750000     -72.97230000
C      -46.41540000     -36.33010000     -72.92380000
C      -47.09490000     -36.79760000     -71.81770000
H      -46.89210000     -37.27450000     -69.62180000
H      -43.24090000     -36.12040000     -71.67030000
H      -46.97650000     -36.09540000     -73.80870000
H      -48.22610000     -36.86930000     -71.95060000
C      -44.28960000     -35.73220000     -74.24880000
H      -44.38570000     -36.65610000     -74.86710000
H      -43.22890000     -35.66050000     -74.06260000
C      -44.31800000     -36.82510000     -69.28180000
H      -44.39690000     -37.84940000     -68.85200000
H      -43.25060000     -36.56280000     -69.58830000
S      -45.08560000     -34.34630000     -75.20910000
S      -44.85330000     -35.59440000     -68.00610000
C      -45.56600000     -33.23690000     -73.85920000
H      -45.82880000     -32.24380000     -74.35330000
H      -46.46910000     -33.60030000     -73.40100000
C      -44.94510000     -33.88640000     -68.76970000
H      -43.96440000     -33.65440000     -69.16800000
H      -45.29260000     -33.30750000     -67.91630000
C      -46.00580000     -33.67260000     -69.88210000
H      -45.76410000     -34.06600000     -70.91050000
H      -46.92930000     -34.12900000     -69.55900000
C      -44.37220000     -32.86210000     -72.92070000
H      -43.46890000     -32.73110000     -73.56970000
H      -44.34600000     -33.74170000     -72.26270000
C      -44.58440000     -31.60030000     -72.15450000
C      -44.02860000     -30.41050000     -72.61160000
C      -45.42250000     -31.34640000     -71.02100000
H      -43.33840000     -30.35540000     -73.45450000
C      -45.44630000     -29.98420000     -70.69660000
C      -46.14370000     -32.14510000     -70.01710000
C      -46.71260000     -31.37370000     -69.06150000
S      -44.60510000     -28.94760000     -71.82230000
S      -46.47570000     -29.63130000     -69.35600000
H      -47.12760000     -31.71410000     -68.10060000
