40
Properties=species:S:1:pos:R:3 #=T CELL(abcABC):=T 1.889726e+02=T 90.00000=T Traj:=T positionsangstrom=T Step:=T 0=T Bead:=T pbc="F F F"
C      -46.21530000     -37.09740000     -70.66740000
C      -44.82530000     -36.73560000     -70.60780000
C      -44.24160000     -36.36190000     -71.78800000
C      -44.92850000     -36.32740000     -72.98990000
C      -46.25750000     -36.69120000     -73.06110000
C      -46.90110000     -37.15580000     -71.87030000
H      -46.57100000     -37.45620000     -69.71220000
H      -43.23950000     -36.10000000     -71.82650000
H      -46.78560000     -36.54410000     -74.01260000
H      -47.87570000     -37.50130000     -71.83970000
C      -44.16640000     -35.77110000     -74.33170000
H      -44.15370000     -36.49200000     -75.09800000
H      -43.11460000     -35.69220000     -74.15520000
C      -44.16150000     -36.68810000     -69.29970000
H      -44.19030000     -37.65400000     -68.70580000
H      -43.10080000     -36.42330000     -69.13020000
S      -44.84850000     -34.18820000     -74.97450000
S      -45.11690000     -35.59350000     -68.03460000
C      -45.28590000     -33.16310000     -73.60480000
H      -45.74560000     -32.37240000     -74.07650000
H      -46.08940000     -33.58950000     -72.94610000
C      -45.06970000     -33.91200000     -68.66990000
H      -43.99660000     -33.69160000     -68.88100000
H      -45.36740000     -33.34600000     -67.83560000
C      -45.81580000     -33.69170000     -70.02620000
H      -45.30320000     -34.21510000     -70.80310000
H      -46.80710000     -34.21340000     -69.92670000
C      -44.01090000     -32.57900000     -72.79750000
H      -43.16240000     -32.51740000     -73.48960000
H      -43.66880000     -33.45030000     -72.18780000
C      -44.34290000     -31.32870000     -72.05230000
C      -43.88070000     -30.02110000     -72.34820000
C      -45.41380000     -31.29260000     -71.13400000
H      -43.11950000     -29.83200000     -73.09340000
C      -45.85860000     -29.97100000     -70.92030000
C      -46.09740000     -32.20360000     -70.19990000
C      -46.98290000     -31.51440000     -69.39690000
S      -44.79050000     -28.79010000     -71.56420000
S      -47.04800000     -29.89650000     -69.62810000
H      -47.72180000     -32.04430000     -68.88670000
