40
Properties=species:S:1:pos:R:3 #=T CELL(abcABC):=T 1.889726e+02=T 90.00000=T Traj:=T positionsangstrom=T Step:=T 0=T Bead:=T pbc="F F F"
C      -46.09570000     -35.82190000     -74.61940000
C      -46.52220000     -34.46330000     -74.44320000
C      -47.45250000     -34.20870000     -73.35360000
C      -48.09810000     -35.25250000     -72.63500000
C      -47.86250000     -36.55830000     -73.07600000
C      -46.85260000     -36.78490000     -73.95850000
H      -45.24940000     -35.98320000     -75.25740000
H      -47.58430000     -33.17440000     -73.10230000
H      -48.38810000     -37.31870000     -72.60890000
H      -46.52140000     -37.85610000     -74.03960000
C      -48.87340000     -34.73460000     -71.40080000
H      -49.94090000     -35.04380000     -71.39620000
H      -48.99540000     -33.64400000     -71.36670000
C      -45.97820000     -33.33340000     -75.29900000
H      -45.99460000     -33.52900000     -76.32830000
H      -46.49840000     -32.38510000     -75.13260000
S      -48.03670000     -35.42740000     -69.81670000
S      -44.14010000     -32.91900000     -74.95850000
C      -46.45990000     -34.46110000     -69.90910000
H      -45.92850000     -34.77220000     -68.99140000
H      -45.92930000     -34.81850000     -70.79320000
C      -44.19970000     -32.28900000     -73.24770000
H      -45.13250000     -31.89140000     -72.91430000
H      -43.46950000     -31.48130000     -73.22960000
C      -43.76840000     -33.35350000     -72.24090000
H      -44.70340000     -33.89060000     -71.96270000
H      -42.86790000     -33.87840000     -72.58350000
C      -46.72470000     -32.90100000     -69.90720000
H      -47.60740000     -32.67340000     -69.32060000
H      -46.85710000     -32.53840000     -70.97470000
C      -45.51880000     -32.24880000     -69.28570000
C      -45.64330000     -31.75790000     -68.00760000
C      -44.18460000     -32.24540000     -69.78170000
H      -46.55620000     -31.67030000     -67.49370000
C      -43.29910000     -31.73720000     -68.86450000
C      -43.43610000     -32.55340000     -70.99950000
C      -42.06160000     -32.29270000     -70.84490000
S      -44.10160000     -31.08860000     -67.37640000
S      -41.70170000     -31.53440000     -69.37220000
H      -41.25200000     -32.66100000     -71.50710000
