40
Properties=species:S:1:pos:R:3 #=T CELL(abcABC):=T 1.889726e+02=T 90.00000=T Traj:=T positionsangstrom=T Step:=T 0=T Bead:=T pbc="F F F"
C      -46.41910000     -35.71980000     -75.11400000
C      -46.63850000     -34.39690000     -74.62850000
C      -47.50620000     -34.14890000     -73.57490000
C      -48.00650000     -35.19230000     -72.78480000
C      -47.73630000     -36.49280000     -73.13430000
C      -46.97150000     -36.69570000     -74.32800000
H      -45.70690000     -35.94510000     -75.91770000
H      -47.65030000     -33.06200000     -73.37520000
H      -47.99480000     -37.33830000     -72.56030000
H      -46.90320000     -37.69950000     -74.69780000
C      -48.92610000     -34.84570000     -71.61530000
H      -49.82610000     -35.42240000     -71.70420000
H      -49.20650000     -33.77930000     -71.66280000
C      -46.06370000     -33.21940000     -75.32360000
H      -46.06360000     -33.32230000     -76.45350000
H      -46.54450000     -32.27080000     -75.14500000
S      -48.36420000     -35.08060000     -69.86130000
S      -44.31330000     -33.11160000     -74.81190000
C      -46.62420000     -34.51090000     -69.63790000
H      -46.25700000     -34.81520000     -68.68590000
H      -46.03570000     -35.06010000     -70.41210000
C      -44.33800000     -32.47310000     -73.09140000
H      -45.40600000     -32.30050000     -72.83980000
H      -43.86560000     -31.48950000     -72.98940000
C      -43.75600000     -33.45550000     -72.05120000
H      -44.37930000     -34.27120000     -71.80600000
H      -42.97410000     -34.00130000     -72.51920000
C      -46.53330000     -33.04790000     -69.81730000
H      -47.47950000     -32.49720000     -69.56310000
H      -46.52950000     -32.86480000     -70.87740000
C      -45.32040000     -32.35320000     -69.20190000
C      -45.47540000     -31.59510000     -68.07180000
C      -43.96930000     -32.33460000     -69.66340000
H      -46.43230000     -31.50950000     -67.53310000
C      -43.17060000     -31.68470000     -68.75230000
C      -43.20050000     -32.75590000     -70.82760000
C      -41.83900000     -32.52770000     -70.69620000
S      -43.98690000     -30.89030000     -67.46400000
S      -41.49110000     -31.68040000     -69.18590000
H      -41.03400000     -32.73650000     -71.39670000
