40
Properties=species:S:1:pos:R:3 #=T CELL(abcABC):=T 1.889726e+02=T 90.00000=T Traj:=T positionsangstrom=T Step:=T 0=T Bead:=T pbc="F F F"
C      -46.49730000     -35.72400000     -74.94020000
C      -46.61960000     -34.39120000     -74.54250000
C      -47.50580000     -34.03230000     -73.47210000
C      -48.09410000     -35.05290000     -72.69650000
C      -47.83140000     -36.41970000     -72.98270000
C      -47.05630000     -36.76900000     -74.10220000
H      -46.05730000     -35.92760000     -75.95840000
H      -47.76030000     -32.95240000     -73.34230000
H      -48.13470000     -37.25460000     -72.32130000
H      -46.87680000     -37.80250000     -74.40670000
C      -49.05550000     -34.69930000     -71.55410000
H      -50.05450000     -35.19060000     -71.60480000
H      -49.24370000     -33.63940000     -71.69960000
C      -45.95310000     -33.32050000     -75.35090000
H      -45.91940000     -33.53460000     -76.38760000
H      -46.50690000     -32.36590000     -75.21680000
S      -48.44710000     -35.10230000     -69.80530000
S      -44.23180000     -33.07650000     -74.88890000
C      -46.72550000     -34.41600000     -69.76340000
H      -46.36880000     -34.62350000     -68.72930000
H      -46.06920000     -35.00650000     -70.45300000
C      -44.33570000     -32.68710000     -73.04560000
H      -45.39800000     -32.60460000     -72.88310000
H      -43.80950000     -31.74970000     -72.85450000
C      -43.69290000     -33.64280000     -72.02530000
H      -44.49350000     -34.34030000     -71.66020000
H      -42.74360000     -34.09970000     -72.42830000
C      -46.51700000     -32.88920000     -70.02860000
H      -47.49200000     -32.39390000     -69.67700000
H      -46.47380000     -32.65200000     -71.07370000
C      -45.33490000     -32.34760000     -69.25910000
C      -45.49820000     -31.53470000     -68.16230000
C      -43.91500000     -32.35830000     -69.71440000
H      -46.43220000     -31.43120000     -67.54600000
C      -43.12940000     -31.60540000     -68.80620000
C      -43.15370000     -32.82140000     -70.87000000
C      -41.78670000     -32.60400000     -70.66570000
S      -43.97550000     -30.88470000     -67.52990000
S      -41.40660000     -31.74010000     -69.24620000
H      -40.98430000     -33.13150000     -71.18030000
