40
Properties=species:S:1:pos:R:3 #=T CELL(abcABC):=T 1.889726e+02=T 90.00000=T Traj:=T positionsangstrom=T Step:=T 0=T Bead:=T pbc="F F F"
C      -46.40700000     -36.02650000     -74.57090000
C      -46.55190000     -34.57480000     -74.32170000
C      -47.40130000     -34.11800000     -73.34090000
C      -48.18470000     -34.96690000     -72.58000000
C      -47.91650000     -36.35970000     -72.69750000
C      -47.07540000     -36.85640000     -73.70290000
H      -45.72720000     -36.41020000     -75.33640000
H      -47.52780000     -33.07420000     -73.10020000
H      -48.26500000     -37.04550000     -71.89280000
H      -46.84570000     -37.93280000     -73.76780000
C      -49.06880000     -34.48210000     -71.41120000
H      -50.09450000     -34.81220000     -71.41670000
H      -49.01170000     -33.40470000     -71.39350000
C      -45.92760000     -33.59330000     -75.31050000
H      -45.83080000     -34.12870000     -76.28550000
H      -46.56640000     -32.70060000     -75.41270000
S      -48.32090000     -35.02560000     -69.69870000
S      -44.18940000     -32.98560000     -75.02530000
C      -46.64180000     -34.27550000     -69.88910000
H      -46.16490000     -34.52020000     -68.93490000
H      -46.11650000     -34.98670000     -70.63780000
C      -44.28240000     -32.52110000     -73.21670000
H      -45.29620000     -32.15810000     -73.07660000
H      -43.58070000     -31.73110000     -72.97420000
C      -43.90280000     -33.64010000     -72.16430000
H      -44.82300000     -34.14710000     -71.89880000
H      -43.36090000     -34.43330000     -72.51030000
C      -46.45690000     -32.76100000     -70.24820000
H      -47.34270000     -32.24580000     -70.13620000
H      -46.28920000     -32.66770000     -71.35420000
C      -45.39870000     -32.20410000     -69.39720000
C      -45.54050000     -31.41530000     -68.28190000
C      -43.99010000     -32.35570000     -69.83330000
H      -46.44020000     -31.11040000     -67.78660000
C      -43.17930000     -31.63350000     -68.95530000
C      -43.22170000     -32.93610000     -70.93150000
C      -41.87090000     -32.73500000     -70.79140000
S      -43.97690000     -30.87500000     -67.62790000
S      -41.46860000     -31.87430000     -69.24280000
H      -41.12180000     -32.89570000     -71.56820000
