40
Properties=species:S:1:pos:R:3 #=T CELL(abcABC):=T 1.889726e+02=T 90.00000=T Traj:=T positionsangstrom=T Step:=T 0=T Bead:=T pbc="F F F"
C      -45.87400000     -36.07960000     -74.04350000
C      -46.34630000     -34.74350000     -74.23600000
C      -47.40710000     -34.40300000     -73.43760000
C      -48.03310000     -35.21760000     -72.48920000
C      -47.51960000     -36.51990000     -72.33190000
C      -46.46610000     -36.93450000     -73.08560000
H      -44.89990000     -36.43950000     -74.42880000
H      -47.85730000     -33.41270000     -73.56170000
H      -47.94000000     -37.20520000     -71.60600000
H      -45.92100000     -37.87860000     -73.00880000
C      -49.01010000     -34.62050000     -71.56480000
H      -50.06600000     -34.91940000     -71.67110000
H      -48.96960000     -33.53290000     -71.68660000
C      -45.64960000     -33.77150000     -75.17770000
H      -45.64250000     -34.12810000     -76.21770000
H      -46.14270000     -32.77960000     -75.18140000
S      -48.63040000     -34.89090000     -69.77250000
S      -43.88670000     -33.44820000     -74.92290000
C      -46.99940000     -34.10490000     -69.54400000
H      -46.88250000     -34.21650000     -68.45260000
H      -46.24900000     -34.73070000     -70.02100000
C      -43.91810000     -32.62300000     -73.36040000
H      -44.72510000     -31.86010000     -73.18730000
H      -43.00590000     -32.03060000     -73.20220000
C      -44.06050000     -33.61290000     -72.19880000
H      -45.08700000     -33.83090000     -72.04960000
H      -43.43280000     -34.48270000     -72.40070000
C      -46.87940000     -32.68810000     -70.01970000
H      -47.75220000     -32.06080000     -69.69340000
H      -46.83550000     -32.64620000     -71.10900000
C      -45.56270000     -31.98400000     -69.56610000
C      -45.64370000     -31.08700000     -68.51900000
C      -44.18170000     -32.24840000     -69.89940000
H      -46.55950000     -30.64240000     -68.09750000
C      -43.29620000     -31.49680000     -69.09940000
C      -43.49940000     -32.96650000     -70.96200000
C      -42.13190000     -32.85600000     -70.81720000
S      -44.09150000     -30.53860000     -67.89850000
S      -41.58290000     -31.71010000     -69.55650000
H      -41.36760000     -33.11070000     -71.62710000
