40
Properties=species:S:1:pos:R:3 #=T CELL(abcABC):=T 1.889726e+02=T 90.00000=T Traj:=T positionsangstrom=T Step:=T 0=T Bead:=T pbc="F F F"
C      -42.71900000     -35.00400000     -68.85300000
C      -44.04730000     -34.57530000     -68.46520000
C      -45.17520000     -35.30480000     -68.87000000
C      -45.07110000     -36.25300000     -69.91670000
C      -43.76260000     -36.61830000     -70.30490000
C      -42.63050000     -36.04010000     -69.78960000
H      -41.84360000     -34.39660000     -68.69280000
H      -46.17050000     -35.07430000     -68.47680000
H      -43.59790000     -37.44770000     -71.00050000
H      -41.66070000     -36.20480000     -70.17630000
C      -46.32590000     -36.98390000     -70.35400000
H      -46.53030000     -37.81530000     -69.69200000
H      -46.11670000     -37.37880000     -71.39200000
C      -44.35950000     -33.51540000     -67.44600000
H      -45.39950000     -33.47870000     -67.23120000
H      -43.89030000     -33.62750000     -66.47170000
S      -47.97050000     -36.05010000     -70.40780000
S      -43.91010000     -31.86510000     -68.14230000
C      -47.94800000     -34.90440000     -71.89320000
H      -47.61590000     -35.48200000     -72.75930000
H      -48.97990000     -34.49670000     -72.11860000
C      -44.53370000     -31.93440000     -69.85010000
H      -44.68090000     -30.84740000     -70.17440000
H      -45.48350000     -32.49450000     -69.86070000
C      -43.73110000     -32.62720000     -71.03590000
H      -42.68980000     -32.35520000     -70.97240000
H      -43.72330000     -33.71570000     -70.85930000
C      -46.93890000     -33.82570000     -71.58120000
H      -45.94390000     -34.22460000     -71.51790000
H      -47.21840000     -33.45110000     -70.55480000
C      -46.81390000     -32.83710000     -72.76620000
C      -47.75970000     -32.55730000     -73.77250000
C      -45.56590000     -32.10360000     -72.94340000
H      -48.74010000     -32.88770000     -73.86470000
C      -45.58480000     -31.37030000     -74.15270000
C      -44.21510000     -32.02820000     -72.28580000
C      -43.39690000     -31.21160000     -72.98110000
S      -47.11580000     -31.40810000     -74.98220000
S      -44.17610000     -30.41300000     -74.42520000
H      -42.38320000     -30.91970000     -72.63910000
