40
Properties=species:S:1:pos:R:3 #=T CELL(abcABC):=T 1.889726e+02=T 90.00000=T Traj:=T positionsangstrom=T Step:=T 0=T Bead:=T pbc="F F F"
C      -45.81150000     -36.30980000     -74.22590000
C      -46.24800000     -34.96880000     -74.42390000
C      -47.30740000     -34.56640000     -73.57780000
C      -47.76760000     -35.30920000     -72.53680000
C      -47.27090000     -36.58040000     -72.28850000
C      -46.34980000     -37.15190000     -73.20800000
H      -44.93610000     -36.73010000     -74.91220000
H      -47.78850000     -33.58770000     -73.85340000
H      -47.70060000     -37.30220000     -71.56410000
H      -46.13800000     -38.17930000     -73.03540000
C      -48.89580000     -34.72370000     -71.62760000
H      -49.78120000     -35.30600000     -71.72920000
H      -49.09440000     -33.70510000     -71.98200000
C      -45.77740000     -34.08590000     -75.48550000
H      -45.45240000     -34.64620000     -76.39260000
H      -46.54870000     -33.33010000     -75.72930000
S      -48.64360000     -34.62340000     -69.77420000
S      -44.14650000     -33.26320000     -74.96540000
C      -46.88690000     -34.10580000     -69.70480000
H      -46.58510000     -34.22640000     -68.64940000
H      -46.25440000     -34.73020000     -70.35270000
C      -44.36250000     -32.67500000     -73.25730000
H      -45.41850000     -32.38820000     -73.26340000
H      -43.76140000     -31.79610000     -73.22440000
C      -44.04290000     -33.61730000     -72.07280000
H      -44.92140000     -34.16250000     -71.71190000
H      -43.37220000     -34.31830000     -72.50150000
C      -46.76160000     -32.65640000     -70.12900000
H      -47.63210000     -32.03020000     -69.86490000
H      -46.60510000     -32.54730000     -71.27920000
C      -45.57330000     -31.86770000     -69.52850000
C      -45.64680000     -31.11380000     -68.39180000
C      -44.18060000     -32.00430000     -69.97330000
H      -46.61070000     -31.08470000     -67.89030000
C      -43.28610000     -31.33600000     -69.10460000
C      -43.42630000     -32.82160000     -70.93520000
C      -42.08480000     -32.70600000     -70.71080000
S      -44.11290000     -30.56780000     -67.75740000
S      -41.56700000     -31.78320000     -69.28300000
H      -41.38760000     -33.32290000     -71.16430000
