40
Properties=species:S:1:pos:R:3 #=T CELL(abcABC):=T 1.889726e+02=T 90.00000=T Traj:=T positionsangstrom=T Step:=T 0=T Bead:=T pbc="F F F"
C      -45.88780000     -36.27860000     -74.22720000
C      -46.38350000     -35.02390000     -74.36800000
C      -47.48050000     -34.63180000     -73.54910000
C      -47.98880000     -35.44180000     -72.45220000
C      -47.40370000     -36.71630000     -72.34330000
C      -46.41020000     -37.14350000     -73.18070000
H      -45.16140000     -36.68820000     -74.97480000
H      -47.69980000     -33.56200000     -73.48030000
H      -47.70790000     -37.25740000     -71.47360000
H      -45.83590000     -38.11980000     -73.13280000
C      -48.96010000     -34.80420000     -71.56250000
H      -49.87320000     -35.39830000     -71.55360000
H      -49.19320000     -33.81880000     -71.92040000
C      -45.90100000     -34.04670000     -75.41240000
H      -45.92030000     -34.42330000     -76.45490000
H      -46.63880000     -33.25620000     -75.37000000
S      -48.41610000     -34.71970000     -69.80460000
S      -44.25190000     -33.18040000     -75.05490000
C      -46.71350000     -33.95970000     -69.75760000
H      -46.40560000     -34.07550000     -68.76080000
H      -46.05260000     -34.54800000     -70.46990000
C      -44.54350000     -32.53100000     -73.28800000
H      -45.54730000     -32.51800000     -73.07280000
H      -44.20870000     -31.47270000     -73.29920000
C      -43.83200000     -33.41320000     -72.19930000
H      -44.54440000     -34.20110000     -71.94510000
H      -42.97120000     -34.03300000     -72.61910000
C      -46.66800000     -32.44090000     -70.22460000
H      -47.58680000     -31.91630000     -69.85750000
H      -46.66210000     -32.41170000     -71.34200000
C      -45.48550000     -31.74100000     -69.59660000
C      -45.67440000     -31.23320000     -68.33420000
C      -44.12710000     -31.98850000     -69.97840000
H      -46.57540000     -30.94840000     -67.84550000
C      -43.25330000     -31.45710000     -69.01210000
C      -43.33930000     -32.69990000     -70.97010000
C      -41.98510000     -32.54840000     -70.76640000
S      -44.12170000     -30.77070000     -67.67490000
S      -41.55290000     -31.81240000     -69.23310000
H      -41.20500000     -32.89760000     -71.43880000
