40
Properties=species:S:1:pos:R:3 #=T CELL(abcABC):=T 1.889726e+02=T 90.00000=T Traj:=T positionsangstrom=T Step:=T 0=T Bead:=T pbc="F F F"
C      -46.03820000     -35.96360000     -74.33060000
C      -46.46460000     -34.57160000     -74.22390000
C      -47.41200000     -34.28040000     -73.19660000
C      -47.98720000     -35.24330000     -72.33230000
C      -47.52520000     -36.57980000     -72.47320000
C      -46.52210000     -36.90290000     -73.45720000
H      -45.19320000     -36.18810000     -74.93720000
H      -47.72050000     -33.22440000     -73.22610000
H      -47.91860000     -37.38610000     -71.82970000
H      -46.14270000     -37.86630000     -73.49260000
C      -49.04430000     -34.87480000     -71.36060000
H      -49.99980000     -35.36240000     -71.51890000
H      -49.32510000     -33.86370000     -71.48620000
C      -46.00660000     -33.49030000     -75.20590000
H      -46.34040000     -33.81340000     -76.20810000
H      -46.42320000     -32.51410000     -75.05140000
S      -48.59130000     -35.17580000     -69.63140000
S      -44.15400000     -33.21830000     -75.05140000
C      -46.87480000     -34.45510000     -69.30600000
H      -46.82430000     -34.53920000     -68.14560000
H      -46.11190000     -35.17400000     -69.61280000
C      -43.96520000     -32.38430000     -73.36470000
H      -44.86250000     -31.78890000     -73.22380000
H      -43.01650000     -31.80150000     -73.41310000
C      -43.85170000     -33.53570000     -72.25950000
H      -44.80450000     -34.08750000     -72.22440000
H      -43.19500000     -34.40750000     -72.50110000
C      -46.63130000     -32.98540000     -69.92740000
H      -47.51100000     -32.35460000     -69.73930000
H      -46.55490000     -33.07510000     -70.95520000
C      -45.45210000     -32.25020000     -69.40800000
C      -45.57870000     -31.39090000     -68.37890000
C      -44.05630000     -32.17270000     -69.97220000
H      -46.49310000     -31.21060000     -67.78310000
C      -43.21860000     -31.36030000     -69.15370000
C      -43.34160000     -32.88620000     -70.97180000
C      -41.99300000     -32.58980000     -70.98930000
S      -44.09230000     -30.61350000     -67.83040000
S      -41.53630000     -31.54470000     -69.65840000
H      -41.23470000     -32.86450000     -71.66180000
