40
Properties=species:S:1:pos:R:3 #=T CELL(abcABC):=T 1.889726e+02=T 90.00000=T Traj:=T positionsangstrom=T Step:=T 0=T Bead:=T pbc="F F F"
C      -47.20240000     -31.35010000     -68.60190000
C      -46.38490000     -30.61900000     -69.47470000
C      -46.77240000     -30.52010000     -70.80940000
C      -47.96410000     -31.13790000     -71.28300000
C      -48.83790000     -31.80150000     -70.34140000
C      -48.41890000     -31.86500000     -68.99370000
H      -46.91410000     -31.42190000     -67.54640000
H      -46.20770000     -30.20150000     -71.65110000
H      -49.76640000     -32.17640000     -70.64630000
H      -49.09770000     -32.29720000     -68.24150000
C      -48.27000000     -31.03170000     -72.80810000
H      -47.42480000     -30.40200000     -73.22710000
H      -49.14610000     -30.42820000     -73.05010000
C      -44.96930000     -30.07360000     -69.05320000
H      -44.49320000     -29.84690000     -70.02870000
H      -44.99180000     -29.11850000     -68.51530000
S      -48.45540000     -32.71330000     -73.60550000
S      -43.91880000     -31.20330000     -68.16070000
C      -47.21160000     -33.72200000     -72.65240000
H      -47.28620000     -33.51760000     -71.63000000
H      -47.48430000     -34.75310000     -72.76720000
C      -43.25220000     -32.29810000     -69.45990000
H      -42.41870000     -32.72810000     -69.02710000
H      -42.82990000     -31.60150000     -70.15430000
C      -44.23280000     -33.42580000     -69.91160000
H      -44.62380000     -33.72620000     -68.96050000
H      -45.03990000     -32.96100000     -70.49030000
C      -45.80950000     -33.42070000     -73.24180000
H      -45.36420000     -32.62550000     -72.73480000
H      -45.93290000     -33.11820000     -74.31520000
C      -44.93780000     -34.67230000     -73.18110000
C      -44.90070000     -35.58170000     -74.18210000
C      -43.99340000     -34.92520000     -72.10020000
H      -45.32940000     -35.43920000     -75.10980000
C      -43.29980000     -36.05960000     -72.42540000
C      -43.60300000     -34.49630000     -70.73720000
C      -42.63860000     -35.31310000     -70.11960000
S      -43.68550000     -36.83300000     -73.93180000
S      -42.13910000     -36.58670000     -71.18970000
H      -42.12110000     -35.26450000     -69.18420000
