40
Properties=species:S:1:pos:R:3 #=T CELL(abcABC):=T 1.889726e+02=T 90.00000=T Traj:=T positionsangstrom=T Step:=T 0=T Bead:=T pbc="F F F"
C      -47.17000000     -31.35980000     -68.52960000
C      -46.30650000     -30.66520000     -69.40650000
C      -46.64910000     -30.66530000     -70.77370000
C      -47.92030000     -30.99490000     -71.24380000
C      -48.85740000     -31.54360000     -70.32350000
C      -48.42110000     -31.74240000     -68.99110000
H      -46.99090000     -31.48930000     -67.48440000
H      -45.99320000     -30.06710000     -71.38690000
H      -49.84790000     -31.80100000     -70.63550000
H      -49.17680000     -32.31080000     -68.42080000
C      -48.32580000     -30.88090000     -72.63940000
H      -47.56140000     -30.54630000     -73.34560000
H      -49.25310000     -30.38870000     -72.73930000
C      -45.02720000     -30.09570000     -68.95350000
H      -44.47570000     -29.58410000     -69.69100000
H      -45.23760000     -29.43430000     -68.06110000
S      -48.74680000     -32.57330000     -73.27290000
S      -43.81990000     -31.37350000     -68.11690000
C      -47.44120000     -33.79720000     -72.81520000
H      -47.62420000     -34.01850000     -71.66150000
H      -47.64380000     -34.74870000     -73.33440000
C      -43.24600000     -32.45770000     -69.56980000
H      -42.25500000     -32.88940000     -69.28590000
H      -43.15950000     -31.67130000     -70.42590000
C      -44.22240000     -33.53980000     -70.07110000
H      -44.81260000     -34.02320000     -69.20020000
H      -44.95710000     -33.18610000     -70.73820000
C      -45.91110000     -33.35710000     -73.05400000
H      -45.76130000     -32.60950000     -72.23030000
H      -45.87920000     -32.76230000     -74.00260000
C      -44.87060000     -34.55930000     -73.14500000
C      -44.86630000     -35.42900000     -74.19700000
C      -43.97260000     -35.05520000     -72.07410000
H      -45.29010000     -35.17090000     -75.13390000
C      -43.18140000     -36.15860000     -72.59770000
C      -43.50940000     -34.61880000     -70.79430000
C      -42.52240000     -35.42290000     -70.23610000
S      -43.65940000     -36.68950000     -74.07090000
S      -42.02780000     -36.67620000     -71.42030000
H      -42.11830000     -35.33250000     -69.25700000
