40
Properties=species:S:1:pos:R:3 #=T CELL(abcABC):=T 1.889726e+02=T 90.00000=T Traj:=T positionsangstrom=T Step:=T 0=T Bead:=T pbc="F F F"
C      -46.32180000     -35.71880000     -74.70950000
C      -46.92310000     -34.49440000     -74.40230000
C      -47.76740000     -34.41830000     -73.28120000
C      -47.91140000     -35.53660000     -72.51090000
C      -47.38060000     -36.78730000     -72.89590000
C      -46.60430000     -36.86510000     -73.94710000
H      -45.68090000     -35.83160000     -75.60210000
H      -48.20720000     -33.45770000     -73.00980000
H      -47.54210000     -37.55340000     -72.19900000
H      -46.05620000     -37.83290000     -74.12640000
C      -48.62310000     -35.41610000     -71.16950000
H      -49.55240000     -36.06270000     -71.13990000
H      -49.16340000     -34.44080000     -71.05520000
C      -46.63340000     -33.30670000     -75.29300000
H      -46.53080000     -33.45600000     -76.34870000
H      -47.38430000     -32.47250000     -75.28590000
S      -47.76080000     -35.67120000     -69.58250000
S      -44.98840000     -32.57910000     -74.86220000
C      -46.21990000     -34.59080000     -69.42390000
H      -45.67570000     -34.88610000     -68.43900000
H      -45.65450000     -34.91510000     -70.32460000
C      -44.97730000     -32.19340000     -73.05100000
H      -46.01080000     -32.03980000     -72.75850000
H      -44.46300000     -31.16590000     -73.12190000
C      -44.28830000     -33.27330000     -72.21430000
H      -44.93820000     -34.08620000     -71.87400000
H      -43.61000000     -33.73740000     -72.92280000
C      -46.38880000     -33.09980000     -69.54390000
H      -47.26490000     -32.96950000     -68.97350000
H      -46.64420000     -32.66650000     -70.56170000
C      -45.21360000     -32.32150000     -69.10340000
C      -45.28680000     -31.59470000     -67.92440000
C      -43.99070000     -32.12540000     -69.84030000
H      -46.12370000     -31.57850000     -67.18140000
C      -42.98460000     -31.45740000     -69.07090000
C      -43.44840000     -32.61430000     -71.12710000
C      -42.11500000     -32.34460000     -71.30490000
S      -43.66770000     -30.82670000     -67.56800000
S      -41.46730000     -31.37670000     -69.97050000
H      -41.46040000     -32.62550000     -72.10650000
