40
Properties=species:S:1:pos:R:3 #=T CELL(abcABC):=T 1.889726e+02=T 90.00000=T Traj:=T positionsangstrom=T Step:=T 0=T Bead:=T pbc="F F F"
C      -46.58370000     -35.54980000     -74.73170000
C      -47.11380000     -34.42700000     -74.05300000
C      -47.78370000     -34.67170000     -72.89150000
C      -47.86460000     -35.92890000     -72.23410000
C      -47.10560000     -36.97870000     -72.76810000
C      -46.51560000     -36.78490000     -74.09530000
H      -46.06900000     -35.29830000     -75.65900000
H      -48.25510000     -33.86000000     -72.34740000
H      -47.11480000     -37.98860000     -72.31390000
H      -45.98230000     -37.66230000     -74.41320000
C      -48.60540000     -35.96060000     -70.93740000
H      -49.06800000     -36.92340000     -70.74690000
H      -49.32660000     -35.12680000     -70.83000000
C      -46.98910000     -33.05200000     -74.61480000
H      -47.56940000     -32.96260000     -75.54560000
H      -47.47860000     -32.33660000     -73.96380000
S      -47.52040000     -35.74830000     -69.41430000
S      -45.30350000     -32.42920000     -75.09660000
C      -46.08150000     -34.70980000     -69.77170000
H      -45.43220000     -35.02770000     -68.99410000
H      -45.73610000     -35.06530000     -70.75400000
C      -44.83470000     -31.52380000     -73.62460000
H      -45.78880000     -30.91860000     -73.42540000
H      -43.97400000     -30.87220000     -73.79470000
C      -44.44890000     -32.51090000     -72.46770000
H      -45.29660000     -32.92270000     -72.05610000
H      -43.77020000     -33.27230000     -72.97050000
C      -46.38020000     -33.13710000     -69.65220000
H      -47.20380000     -32.92570000     -69.01870000
H      -46.66910000     -32.78250000     -70.64520000
C      -45.25180000     -32.32160000     -69.16750000
C      -45.01470000     -32.18950000     -67.81760000
C      -44.04460000     -31.99520000     -69.91680000
H      -45.54510000     -32.57800000     -66.93640000
C      -42.93710000     -31.62240000     -69.13680000
C      -43.61500000     -31.96610000     -71.34280000
C      -42.36480000     -31.50310000     -71.57030000
S      -43.42210000     -31.66040000     -67.42450000
S      -41.46290000     -31.16510000     -70.05790000
H      -41.82320000     -31.57650000     -72.52660000
