40
Properties=species:S:1:pos:R:3 #=T CELL(abcABC):=T 1.889726e+02=T 90.00000=T Traj:=T positionsangstrom=T Step:=T 0=T Bead:=T pbc="F F F"
C      -46.62060000     -35.51560000     -74.76320000
C      -47.11320000     -34.35390000     -74.11790000
C      -47.84470000     -34.49750000     -72.95750000
C      -47.88540000     -35.71950000     -72.30140000
C      -47.25180000     -36.83240000     -72.84710000
C      -46.60310000     -36.77350000     -74.13490000
H      -46.06510000     -35.29270000     -75.69730000
H      -48.21880000     -33.59630000     -72.48640000
H      -47.33840000     -37.76120000     -72.28350000
H      -46.21330000     -37.68360000     -74.66550000
C      -48.55530000     -35.85560000     -71.00670000
H      -49.31530000     -36.68010000     -70.96390000
H      -49.14150000     -34.95510000     -70.84850000
C      -46.97120000     -32.95310000     -74.60010000
H      -47.47810000     -32.95660000     -75.58000000
H      -47.49620000     -32.20580000     -73.97790000
S      -47.32390000     -36.13370000     -69.63540000
S      -45.28280000     -32.19370000     -75.10500000
C      -45.98910000     -34.91140000     -70.00790000
H      -45.11070000     -35.28640000     -69.48730000
H      -45.78800000     -35.04020000     -71.02720000
C      -44.65090000     -31.70830000     -73.49890000
H      -45.24990000     -30.93710000     -73.10310000
H      -43.67810000     -31.20260000     -73.80990000
C      -44.42460000     -32.78650000     -72.41680000
H      -45.43880000     -33.14550000     -71.99920000
H      -44.07790000     -33.68000000     -72.79360000
C      -46.23300000     -33.53370000     -69.43560000
H      -47.00380000     -33.54920000     -68.66430000
H      -46.76420000     -32.92160000     -70.24430000
C      -45.06390000     -32.72160000     -68.97220000
C      -44.85540000     -32.33850000     -67.62850000
C      -44.04550000     -32.16060000     -69.83750000
H      -45.56550000     -32.55460000     -66.83660000
C      -43.15500000     -31.36820000     -69.09160000
C      -43.59220000     -32.24210000     -71.26060000
C      -42.39810000     -31.55830000     -71.43500000
S      -43.44340000     -31.35380000     -67.41640000
S      -41.77480000     -30.92160000     -70.02100000
H      -41.82240000     -31.49520000     -72.32590000
