40
Properties=species:S:1:pos:R:3 #=T CELL(abcABC):=T 1.889726e+02=T 90.00000=T Traj:=T positionsangstrom=T Step:=T 0=T Bead:=T pbc="F F F"
C      -46.82390000     -35.09040000     -74.95970000
C      -47.15490000     -34.01540000     -74.15370000
C      -47.64140000     -34.24870000     -72.86700000
C      -47.62170000     -35.52290000     -72.31370000
C      -47.20720000     -36.54660000     -73.15090000
C      -46.76690000     -36.37050000     -74.44190000
H      -46.66270000     -34.95490000     -76.01790000
H      -47.96200000     -33.38550000     -72.26900000
H      -47.12290000     -37.56130000     -72.77810000
H      -46.36150000     -37.15570000     -74.98320000
C      -48.25330000     -35.83250000     -71.00250000
H      -48.92560000     -36.64280000     -71.16990000
H      -48.91300000     -34.98060000     -70.63550000
C      -47.02050000     -32.69200000     -74.75590000
H      -47.54160000     -32.68170000     -75.74460000
H      -47.36540000     -31.95470000     -74.00150000
S      -47.10630000     -36.54940000     -69.69160000
S      -45.20070000     -32.14710000     -75.05860000
C      -45.75430000     -35.27280000     -69.52990000
H      -45.23120000     -35.42590000     -68.56340000
H      -44.97550000     -35.33340000     -70.22850000
C      -44.81350000     -31.59560000     -73.38440000
H      -45.63450000     -31.01510000     -72.88490000
H      -44.06500000     -30.93690000     -73.60360000
C      -44.29670000     -32.70050000     -72.50210000
H      -45.13130000     -33.31400000     -72.27190000
H      -43.52310000     -33.24760000     -73.10660000
C      -46.32450000     -33.80990000     -69.61520000
H      -47.14380000     -33.69320000     -68.87700000
H      -46.57490000     -33.42950000     -70.58090000
C      -45.18870000     -32.87830000     -69.04160000
C      -45.01510000     -32.56820000     -67.71800000
C      -44.04390000     -32.32770000     -69.85560000
H      -45.67810000     -32.84440000     -66.91810000
C      -43.15550000     -31.63570000     -69.00180000
C      -43.69550000     -32.13450000     -71.22260000
C      -42.49930000     -31.43570000     -71.37460000
S      -43.61760000     -31.53320000     -67.32200000
S      -41.91980000     -30.84770000     -69.88480000
H      -42.05140000     -31.02620000     -72.30310000
