40
Properties=species:S:1:pos:R:3 #=T CELL(abcABC):=T 1.889726e+02=T 90.00000=T Traj:=T positionsangstrom=T Step:=T 0=T Bead:=T pbc="F F F"
C      -46.84480000     -35.17860000     -75.05950000
C      -47.14230000     -34.03990000     -74.28050000
C      -47.55610000     -34.17570000     -72.93470000
C      -47.63650000     -35.42770000     -72.33800000
C      -47.35130000     -36.49170000     -73.13930000
C      -46.91380000     -36.43190000     -74.47530000
H      -46.40240000     -35.09070000     -76.01500000
H      -47.84840000     -33.24810000     -72.43820000
H      -47.68620000     -37.48790000     -72.89420000
H      -46.70300000     -37.27840000     -75.10490000
C      -48.18380000     -35.69510000     -70.94480000
H      -49.05080000     -36.25550000     -70.85950000
H      -48.38220000     -34.71880000     -70.43200000
C      -47.06660000     -32.63250000     -74.79310000
H      -47.51660000     -32.52740000     -75.78290000
H      -47.63650000     -31.91580000     -74.23220000
S      -46.92400000     -36.53490000     -69.83020000
S      -45.36550000     -32.00850000     -75.10020000
C      -45.59340000     -35.37820000     -69.62150000
H      -45.16660000     -35.54540000     -68.65220000
H      -44.74850000     -35.59210000     -70.32380000
C      -44.72850000     -31.67100000     -73.32330000
H      -45.55050000     -31.04910000     -72.88680000
H      -43.89370000     -30.92910000     -73.50720000
C      -44.36220000     -32.76820000     -72.33720000
H      -45.23080000     -33.17010000     -72.03410000
H      -43.84460000     -33.66740000     -72.74080000
C      -46.19420000     -33.93170000     -69.60320000
H      -47.02950000     -33.86450000     -68.96650000
H      -46.57720000     -33.79110000     -70.61790000
C      -45.17410000     -32.91710000     -69.12820000
C      -45.01290000     -32.80390000     -67.79710000
C      -44.09330000     -32.22520000     -69.83610000
H      -45.65190000     -33.20070000     -66.99090000
C      -43.26460000     -31.49850000     -68.95480000
C      -43.63490000     -32.17300000     -71.15910000
C      -42.44730000     -31.50220000     -71.27940000
S      -43.66390000     -31.66430000     -67.26570000
S      -41.92080000     -30.74140000     -69.72740000
H      -41.90550000     -31.18460000     -72.16380000
