40
Properties=species:S:1:pos:R:3 #=T CELL(abcABC):=T 1.889726e+02=T 90.00000=T Traj:=T positionsangstrom=T Step:=T 0=T Bead:=T pbc="F F F"
C      -48.13270000     -30.14330000     -70.29090000
C      -47.53820000     -31.17240000     -69.51720000
C      -47.91460000     -32.53390000     -69.69410000
C      -48.79130000     -32.84310000     -70.73820000
C      -49.28820000     -31.82650000     -71.58500000
C      -48.99720000     -30.52660000     -71.31450000
H      -47.74740000     -29.14900000     -70.20540000
H      -47.59510000     -33.35680000     -68.98800000
H      -49.90480000     -32.11640000     -72.44720000
H      -49.43180000     -29.83420000     -72.02280000
C      -49.29520000     -34.19130000     -70.94670000
H      -50.42140000     -34.35780000     -70.99850000
H      -49.03730000     -34.79540000     -70.06980000
C      -46.61380000     -30.74610000     -68.42680000
H      -46.17470000     -29.85780000     -68.88690000
H      -47.18220000     -30.41780000     -67.55250000
S      -48.58310000     -35.01330000     -72.43320000
S      -45.17000000     -31.74980000     -67.68620000
C      -46.70740000     -35.03320000     -71.99080000
H      -46.52430000     -34.77900000     -70.91930000
H      -46.36690000     -36.04340000     -72.25610000
C      -44.00370000     -32.12570000     -69.13560000
H      -42.99770000     -32.05460000     -68.78420000
H      -44.04680000     -31.33600000     -69.85260000
C      -44.21100000     -33.43660000     -69.87890000
H      -44.27590000     -34.23800000     -69.11260000
H      -45.18190000     -33.47040000     -70.39030000
C      -45.92740000     -34.11430000     -72.88570000
H      -46.11950000     -33.09010000     -72.59330000
H      -46.45110000     -34.17640000     -73.90030000
C      -44.45790000     -34.38050000     -73.15620000
C      -44.00260000     -34.72210000     -74.42480000
C      -43.28280000     -34.24570000     -72.31070000
H      -44.71350000     -34.95940000     -75.22240000
C      -42.02410000     -34.52100000     -72.92520000
C      -43.07920000     -33.82790000     -70.92260000
C      -41.78010000     -34.05370000     -70.52050000
S      -42.26310000     -34.98110000     -74.54610000
S      -40.64030000     -34.46710000     -71.85340000
H      -41.46760000     -34.00280000     -69.46730000
