40
Properties=species:S:1:pos:R:3 #=T CELL(abcABC):=T 1.889726e+02=T 90.00000=T Traj:=T positionsangstrom=T Step:=T 0=T Bead:=T pbc="F F F"
C      -43.05190000     -35.38860000     -68.94840000
C      -44.22560000     -34.71560000     -68.49770000
C      -45.49190000     -35.26570000     -68.79150000
C      -45.55930000     -36.39240000     -69.69270000
C      -44.38130000     -37.04460000     -70.13500000
C      -43.17060000     -36.50890000     -69.79090000
H      -42.09000000     -34.92630000     -68.68020000
H      -46.42960000     -34.64900000     -68.65760000
H      -44.43670000     -37.92590000     -70.74950000
H      -42.28530000     -37.03090000     -70.04160000
C      -46.83460000     -37.03740000     -70.25730000
H      -47.14720000     -37.82470000     -69.58480000
H      -46.50110000     -37.41200000     -71.23210000
C      -44.10010000     -33.62840000     -67.47590000
H      -45.04280000     -33.56540000     -66.93470000
H      -43.39010000     -33.95730000     -66.61430000
S      -48.38140000     -36.01350000     -70.64550000
S      -43.42440000     -31.95670000     -68.00520000
C      -47.58510000     -35.05780000     -72.03800000
H      -46.89590000     -35.76570000     -72.58200000
H      -48.36460000     -34.86040000     -72.79750000
C      -44.35150000     -31.47210000     -69.66480000
H      -44.27320000     -30.31460000     -69.68400000
H      -45.43050000     -31.85670000     -69.63440000
C      -43.66110000     -32.14310000     -70.86160000
H      -42.55930000     -32.00540000     -70.79020000
H      -43.85760000     -33.26100000     -70.86200000
C      -46.80130000     -33.78700000     -71.63610000
H      -45.89080000     -34.08510000     -71.07440000
H      -47.27740000     -33.14000000     -70.84560000
C      -46.48230000     -32.90100000     -72.82720000
C      -47.32470000     -32.73840000     -73.91550000
C      -45.38560000     -31.92430000     -72.94480000
H      -48.30890000     -33.30360000     -74.01980000
C      -45.52490000     -31.18060000     -74.13900000
C      -44.14060000     -31.64750000     -72.27500000
C      -43.37360000     -30.74260000     -72.92120000
S      -46.89370000     -31.57720000     -75.08140000
S      -44.14960000     -30.23530000     -74.42740000
H      -42.44850000     -30.35350000     -72.59310000
