40
Properties=species:S:1:pos:R:3 #=T CELL(abcABC):=T 1.889726e+02=T 90.00000=T Traj:=T positionsangstrom=T Step:=T 0=T Bead:=T pbc="F F F"
C      -47.71570000     -34.09830000     -74.12550000
C      -46.89450000     -35.28780000     -74.07090000
C      -45.55450000     -35.20830000     -74.51380000
C      -45.01580000     -33.97400000     -74.90290000
C      -45.84370000     -32.84920000     -74.99560000
C      -47.18600000     -32.91370000     -74.63850000
H      -48.69910000     -33.98720000     -73.77450000
H      -44.95120000     -36.16280000     -74.39990000
H      -45.41940000     -31.88330000     -75.39830000
H      -47.81370000     -32.01780000     -74.83370000
C      -43.55830000     -33.96680000     -74.94610000
H      -43.21770000     -33.75670000     -75.96250000
H      -43.22710000     -34.95760000     -74.66060000
C      -47.45590000     -36.43080000     -73.31350000
H      -48.58590000     -36.48980000     -73.30070000
H      -47.14840000     -37.42140000     -73.74010000
S      -42.94830000     -32.72050000     -73.72300000
S      -46.56700000     -36.72590000     -71.71370000
C      -43.80480000     -33.13060000     -72.17820000
H      -44.58770000     -32.36040000     -72.07350000
H      -44.24070000     -34.07260000     -72.36350000
C      -46.60670000     -35.07920000     -70.81440000
H      -47.62390000     -34.83820000     -70.54320000
H      -46.27450000     -34.31330000     -71.51320000
C      -45.63430000     -35.01000000     -69.60070000
H      -45.85900000     -35.84880000     -68.88920000
H      -44.63910000     -35.26770000     -69.95670000
C      -42.94100000     -33.10740000     -70.91970000
H      -41.88670000     -32.70980000     -71.04500000
H      -42.79600000     -34.12170000     -70.67520000
C      -43.64150000     -32.25540000     -69.83980000
C      -43.23810000     -30.95110000     -69.62380000
C      -44.82330000     -32.60460000     -69.05810000
H      -42.41660000     -30.43380000     -70.03130000
C      -45.19910000     -31.53450000     -68.16130000
C      -45.75560000     -33.69260000     -68.85950000
C      -46.80580000     -33.36410000     -68.00130000
S      -44.24400000     -30.08630000     -68.54220000
S      -46.61940000     -31.84030000     -67.23010000
H      -47.61160000     -34.07240000     -67.64000000
