40
Properties=species:S:1:pos:R:3 #=T CELL(abcABC):=T 1.889726e+02=T 90.00000=T Traj:=T positionsangstrom=T Step:=T 0=T Bead:=T pbc="F F F"
C      -47.85810000     -34.11180000     -74.07600000
C      -46.99540000     -35.23330000     -73.85670000
C      -45.63720000     -35.18460000     -74.21340000
C      -45.16720000     -34.04160000     -74.83130000
C      -46.05750000     -32.98850000     -75.10250000
C      -47.33290000     -32.96440000     -74.64530000
H      -48.86770000     -34.13770000     -73.77450000
H      -44.94030000     -35.95120000     -74.01570000
H      -45.61510000     -32.10860000     -75.48830000
H      -48.03080000     -32.13330000     -74.65100000
C      -43.72720000     -33.74390000     -75.09890000
H      -43.63510000     -33.11970000     -75.99460000
H      -43.12540000     -34.65240000     -75.32300000
C      -47.60720000     -36.49780000     -73.17190000
H      -48.64170000     -36.32270000     -73.10600000
H      -47.44480000     -37.43630000     -73.71780000
S      -42.96990000     -32.66490000     -73.79040000
S      -46.74350000     -36.72440000     -71.54030000
C      -43.60970000     -33.51960000     -72.25740000
H      -44.67370000     -33.24530000     -72.24910000
H      -43.59940000     -34.67570000     -72.32570000
C      -46.85350000     -35.02640000     -70.77030000
H      -47.87680000     -34.88150000     -70.43450000
H      -46.68450000     -34.31740000     -71.61610000
C      -45.65860000     -34.86400000     -69.80410000
H      -45.66100000     -35.65800000     -69.06350000
H      -44.74040000     -35.00980000     -70.40050000
C      -42.91640000     -33.10920000     -70.97420000
H      -41.86560000     -32.84230000     -71.17750000
H      -42.87300000     -34.11270000     -70.45270000
C      -43.56500000     -32.15490000     -69.94070000
C      -42.94710000     -31.01130000     -69.60470000
C      -44.78220000     -32.44230000     -69.19990000
H      -41.94740000     -30.80700000     -69.91540000
C      -45.05830000     -31.49560000     -68.25540000
C      -45.65270000     -33.57870000     -69.03730000
C      -46.58380000     -33.47180000     -68.04840000
S      -43.95720000     -30.09850000     -68.39990000
S      -46.56400000     -31.86490000     -67.33550000
H      -47.36250000     -34.16880000     -67.77410000
