40
Properties=species:S:1:pos:R:3 #=T CELL(abcABC):=T 1.889726e+02=T 90.00000=T Traj:=T positionsangstrom=T Step:=T 0=T Bead:=T pbc="F F F"
C      -48.26990000     -34.18510000     -74.41950000
C      -47.31470000     -35.07640000     -73.91630000
C      -45.96000000     -34.82900000     -74.17780000
C      -45.57860000     -33.68110000     -74.86480000
C      -46.57660000     -32.94410000     -75.49980000
C      -47.91820000     -33.25330000     -75.35840000
H      -49.31040000     -34.52540000     -74.36840000
H      -45.12340000     -35.36400000     -73.66400000
H      -46.23650000     -31.99950000     -75.94800000
H      -48.72800000     -32.84960000     -75.94570000
C      -44.19670000     -33.15790000     -74.85560000
H      -44.11980000     -32.36600000     -75.64770000
H      -43.42890000     -33.92430000     -75.16910000
C      -47.77990000     -36.22790000     -73.05780000
H      -48.72810000     -35.91390000     -72.72160000
H      -48.05310000     -37.14390000     -73.59670000
S      -43.63850000     -32.41820000     -73.28070000
S      -46.68550000     -36.61680000     -71.67680000
C      -43.45090000     -33.95710000     -72.16840000
H      -44.37990000     -34.38210000     -71.95400000
H      -42.99870000     -34.74750000     -72.76000000
C      -46.88560000     -35.22440000     -70.42440000
H      -47.78880000     -35.52640000     -69.82730000
H      -47.13580000     -34.27370000     -70.90850000
C      -45.69440000     -35.01390000     -69.56270000
H      -45.78620000     -35.78980000     -68.70020000
H      -44.81940000     -35.26200000     -70.23120000
C      -42.57960000     -33.56410000     -70.93290000
H      -41.63080000     -33.20390000     -71.26830000
H      -42.29520000     -34.47430000     -70.35340000
C      -43.22670000     -32.59330000     -69.98400000
C      -42.60070000     -31.36810000     -69.89710000
C      -44.40510000     -32.74810000     -69.14070000
H      -41.70680000     -31.25640000     -70.45700000
C      -44.58270000     -31.58790000     -68.24840000
C      -45.48740000     -33.65790000     -68.90990000
C      -46.40380000     -33.23020000     -67.90580000
S      -43.39830000     -30.33110000     -68.67710000
S      -46.11710000     -31.62320000     -67.28400000
H      -47.14850000     -33.89070000     -67.45230000
