40
Properties=species:S:1:pos:R:3 #=T CELL(abcABC):=T 1.889726e+02=T 90.00000=T Traj:=T positionsangstrom=T Step:=T 0=T Bead:=T pbc="F F F"
C      -48.33690000     -34.27340000     -74.52430000
C      -47.32820000     -34.96850000     -73.84620000
C      -46.00540000     -34.52880000     -73.99820000
C      -45.68570000     -33.45790000     -74.81100000
C      -46.70880000     -32.88010000     -75.56630000
C      -48.06060000     -33.22690000     -75.37220000
H      -49.35020000     -34.66610000     -74.46370000
H      -45.19870000     -35.03000000     -73.51790000
H      -46.45610000     -32.02910000     -76.22970000
H      -48.86690000     -32.80600000     -76.04700000
C      -44.34280000     -32.75260000     -74.70270000
H      -44.30410000     -31.88590000     -75.34030000
H      -43.63090000     -33.41600000     -75.25430000
C      -47.69660000     -36.22150000     -73.03770000
H      -48.69920000     -36.07590000     -72.62330000
H      -47.85530000     -37.01900000     -73.77320000
S      -43.76260000     -32.22870000     -73.06050000
S      -46.53900000     -36.74910000     -71.69910000
C      -43.36320000     -33.80640000     -72.20540000
H      -44.22670000     -34.48300000     -72.11160000
H      -42.78790000     -34.34930000     -72.85860000
C      -46.55850000     -35.11950000     -70.78430000
H      -47.60480000     -35.01860000     -70.49440000
H      -46.19620000     -34.21230000     -71.34830000
C      -45.66890000     -35.16760000     -69.42460000
H      -46.27010000     -35.84130000     -68.85170000
H      -44.79760000     -35.76560000     -69.77460000
C      -42.60380000     -33.76050000     -70.89450000
H      -41.56080000     -33.43140000     -71.10600000
H      -42.56540000     -34.77960000     -70.45210000
C      -43.17750000     -32.75890000     -69.98220000
C      -42.65200000     -31.52480000     -69.85350000
C      -44.40100000     -32.80450000     -69.17110000
H      -41.82020000     -31.15190000     -70.44290000
C      -44.64560000     -31.68470000     -68.51240000
C      -45.42450000     -33.84320000     -68.77570000
C      -46.23110000     -33.40680000     -67.70970000
S      -43.55030000     -30.39550000     -68.84610000
S      -45.99710000     -31.69530000     -67.33640000
H      -47.16020000     -33.75920000     -67.35830000
