40
Properties=species:S:1:pos:R:3 #=T CELL(abcABC):=T 1.889726e+02=T 90.00000=T Traj:=T positionsangstrom=T Step:=T 0=T Bead:=T pbc="F F F"
C      -42.59210000     -34.89070000     -75.11820000
C      -42.85010000     -34.74990000     -73.72670000
C      -43.12930000     -33.52140000     -73.16540000
C      -42.96640000     -32.39310000     -73.95080000
C      -42.80380000     -32.45490000     -75.32560000
C      -42.67840000     -33.75220000     -75.91940000
H      -42.35290000     -35.85300000     -75.60700000
H      -43.45770000     -33.54040000     -72.12960000
H      -42.67210000     -31.64780000     -75.99350000
H      -42.60060000     -33.86480000     -76.94220000
C      -43.09270000     -31.09580000     -73.17340000
H      -42.57560000     -30.32330000     -73.69520000
H      -42.84110000     -31.15060000     -72.13050000
C      -43.00360000     -35.97860000     -72.80740000
H      -42.60690000     -36.81780000     -73.34480000
H      -42.56120000     -35.90890000     -71.84510000
S      -44.80310000     -30.44300000     -73.43570000
S      -44.82270000     -36.62350000     -72.64790000
C      -45.86110000     -31.33390000     -72.13220000
H      -46.70290000     -30.74200000     -71.98660000
H      -46.20610000     -32.32380000     -72.51280000
C      -45.69060000     -35.35210000     -71.58670000
H      -46.69900000     -35.74790000     -71.63950000
H      -45.75740000     -34.45180000     -72.16820000
C      -44.99870000     -35.14980000     -70.14260000
H      -44.62360000     -36.12180000     -69.66590000
H      -44.14620000     -34.48520000     -70.12340000
C      -45.16150000     -31.59610000     -70.78120000
H      -44.68340000     -30.58680000     -70.50380000
H      -44.33270000     -32.28430000     -70.89570000
C      -46.15350000     -31.86400000     -69.72970000
C      -46.95820000     -30.90950000     -69.16480000
C      -46.54730000     -33.19350000     -69.21380000
H      -46.90890000     -29.84430000     -69.31550000
C      -47.53770000     -33.10580000     -68.19620000
C      -46.11820000     -34.60030000     -69.29940000
C      -46.72090000     -35.45380000     -68.44730000
S      -48.16010000     -31.54520000     -67.97120000
S      -47.97830000     -34.67560000     -67.47320000
H      -46.58440000     -36.52640000     -68.29370000
