40
Properties=species:S:1:pos:R:3 #=T CELL(abcABC):=T 1.889726e+02=T 90.00000=T Traj:=T positionsangstrom=T Step:=T 0=T Bead:=T pbc="F F F"
C      -44.93590000     -35.60760000     -74.60270000
C      -45.99040000     -34.68680000     -74.57580000
C      -47.05510000     -35.09710000     -73.70830000
C      -46.95220000     -36.14660000     -72.83490000
C      -45.85100000     -37.06260000     -72.88130000
C      -44.89170000     -36.83750000     -73.87870000
H      -44.08970000     -35.43530000     -75.27930000
H      -47.99700000     -34.52440000     -73.67480000
H      -45.84980000     -37.89890000     -72.23740000
H      -44.03780000     -37.54150000     -73.98790000
C      -47.95380000     -36.29430000     -71.72120000
H      -48.51090000     -37.20960000     -71.95070000
H      -48.60340000     -35.45670000     -71.73850000
C      -45.94880000     -33.36730000     -75.30140000
H      -46.11310000     -33.56720000     -76.35970000
H      -46.86650000     -32.73400000     -75.06420000
S      -47.27480000     -36.46960000     -69.99440000
S      -44.30030000     -32.67310000     -74.82180000
C      -45.88580000     -35.21030000     -70.02550000
H      -45.25530000     -35.54880000     -69.20040000
H      -45.51280000     -35.34960000     -71.05380000
C      -44.70650000     -31.36070000     -73.60990000
H      -45.58420000     -30.73390000     -73.97610000
H      -43.74810000     -30.85040000     -73.47680000
C      -45.00110000     -32.08670000     -72.25040000
H      -46.12070000     -32.14500000     -72.33580000
H      -44.67760000     -33.16680000     -72.28360000
C      -46.48910000     -33.89950000     -69.68810000
H      -47.35090000     -34.11260000     -68.98930000
H      -46.92390000     -33.48790000     -70.61830000
C      -45.61880000     -32.85950000     -69.03560000
C      -45.57660000     -32.78300000     -67.66530000
C      -44.77100000     -31.85090000     -69.68390000
H      -46.13060000     -33.35990000     -66.92750000
C      -44.25300000     -31.05040000     -68.70090000
C      -44.50030000     -31.34320000     -71.00430000
C      -43.47410000     -30.38370000     -71.09520000
S      -44.56710000     -31.43830000     -67.06360000
S      -43.12230000     -29.92500000     -69.43460000
H      -43.08850000     -29.74590000     -71.87390000
