40
Properties=species:S:1:pos:R:3 #=T CELL(abcABC):=T 1.889726e+02=T 90.00000=T Traj:=T positionsangstrom=T Step:=T 0=T Bead:=T pbc="F F F"
C      -43.97100000     -35.69160000     -74.36230000
C      -45.17730000     -34.96350000     -74.45200000
C      -46.27000000     -35.32640000     -73.68670000
C      -46.20770000     -36.22610000     -72.59460000
C      -45.00550000     -36.88080000     -72.50130000
C      -43.93650000     -36.69970000     -73.40780000
H      -43.16060000     -35.60950000     -75.07130000
H      -47.23930000     -34.81330000     -73.80620000
H      -44.67050000     -37.56360000     -71.72570000
H      -43.04000000     -37.24640000     -73.10020000
C      -47.52460000     -36.28600000     -71.79700000
H      -48.02420000     -37.19680000     -72.07780000
H      -48.26760000     -35.48840000     -72.07790000
C      -45.40980000     -33.85980000     -75.40340000
H      -45.06470000     -34.06870000     -76.44690000
H      -46.47880000     -33.61950000     -75.42690000
S      -47.28100000     -36.46270000     -69.98510000
S      -44.46050000     -32.22540000     -75.09440000
C      -46.37770000     -34.94430000     -69.56270000
H      -45.93200000     -35.21390000     -68.66360000
H      -45.45680000     -34.86140000     -70.22490000
C      -45.29780000     -31.64260000     -73.54270000
H      -46.35560000     -31.50030000     -73.64330000
H      -45.01470000     -30.53170000     -73.32720000
C      -45.12940000     -32.57010000     -72.28510000
H      -46.10750000     -33.14830000     -72.08160000
H      -44.36320000     -33.37260000     -72.48420000
C      -47.11820000     -33.66370000     -69.62630000
H      -48.02650000     -33.75010000     -68.98610000
H      -47.59730000     -33.44890000     -70.58620000
C      -46.26890000     -32.54670000     -69.05670000
C      -46.39500000     -32.18730000     -67.73870000
C      -45.11450000     -31.89290000     -69.71030000
H      -47.08940000     -32.55270000     -66.93490000
C      -44.43790000     -31.04650000     -68.83150000
C      -44.60370000     -31.83850000     -71.07780000
C      -43.56890000     -30.95610000     -71.14070000
S      -45.15850000     -31.06010000     -67.22630000
S      -43.17820000     -30.21690000     -69.63650000
H      -43.00030000     -30.65980000     -72.08700000
