40
Properties=species:S:1:pos:R:3 #=T CELL(abcABC):=T 1.889726e+02=T 90.00000=T Traj:=T positionsangstrom=T Step:=T 0=T Bead:=T pbc="F F F"
C      -43.67920000     -35.40540000     -73.97080000
C      -44.96010000     -35.02160000     -74.45920000
C      -46.12980000     -35.53280000     -73.89680000
C      -46.17330000     -36.36490000     -72.76960000
C      -44.86990000     -36.73110000     -72.30050000
C      -43.69500000     -36.20100000     -72.84200000
H      -42.71320000     -35.07910000     -74.35900000
H      -47.04390000     -35.21850000     -74.38800000
H      -44.74110000     -37.19660000     -71.34150000
H      -42.83210000     -36.37140000     -72.35910000
C      -47.47480000     -36.71480000     -72.08770000
H      -47.87850000     -37.62040000     -72.50970000
H      -48.26300000     -36.01350000     -72.41210000
C      -45.12750000     -33.98190000     -75.52690000
H      -44.55880000     -34.17190000     -76.40390000
H      -46.17130000     -33.96490000     -75.76220000
S      -47.42140000     -36.66870000     -70.20290000
S      -44.64710000     -32.26640000     -74.89860000
C      -46.34560000     -35.22940000     -69.70580000
H      -45.95440000     -35.53120000     -68.68740000
H      -45.47380000     -35.28320000     -70.23820000
C      -45.49600000     -32.33290000     -73.32870000
H      -46.43170000     -32.99370000     -73.46410000
H      -45.84120000     -31.35890000     -73.13080000
C      -44.52460000     -32.80180000     -72.12360000
H      -44.93650000     -33.69250000     -71.63670000
H      -43.55690000     -33.04990000     -72.59270000
C      -46.96620000     -33.82480000     -69.68070000
H      -47.89620000     -33.91920000     -69.11860000
H      -47.25460000     -33.49770000     -70.67380000
C      -46.08530000     -32.71230000     -69.08150000
C      -46.43780000     -32.15350000     -67.83990000
C      -45.01980000     -31.91010000     -69.71650000
H      -47.18270000     -32.53460000     -67.23370000
C      -44.60030000     -30.81210000     -68.90860000
C      -44.38790000     -31.82500000     -71.01880000
C      -43.46610000     -30.77430000     -71.10820000
S      -45.60250000     -30.71600000     -67.43950000
S      -43.40340000     -29.79060000     -69.57370000
H      -42.77340000     -30.60650000     -71.87380000
