40
Properties=species:S:1:pos:R:3 #=T CELL(abcABC):=T 1.889726e+02=T 90.00000=T Traj:=T positionsangstrom=T Step:=T 0=T Bead:=T pbc="F F F"
C      -43.56850000     -35.49290000     -73.92660000
C      -44.81680000     -35.00470000     -74.37050000
C      -46.00860000     -35.38240000     -73.71910000
C      -46.02250000     -36.26570000     -72.59520000
C      -44.77270000     -36.76220000     -72.18750000
C      -43.57500000     -36.33160000     -72.81000000
H      -42.67990000     -35.36350000     -74.51180000
H      -46.95190000     -34.91950000     -73.95450000
H      -44.70050000     -37.49270000     -71.45990000
H      -42.66550000     -36.68480000     -72.45160000
C      -47.31540000     -36.70110000     -72.00820000
H      -47.33210000     -37.78860000     -72.05550000
H      -48.24970000     -36.25050000     -72.52190000
C      -44.82980000     -34.02030000     -75.48050000
H      -43.95630000     -34.11430000     -76.11470000
H      -45.80360000     -34.13930000     -76.13200000
S      -47.50500000     -36.52490000     -70.13150000
S      -44.87060000     -32.28120000     -74.89610000
C      -46.40530000     -35.22570000     -69.48370000
H      -46.55260000     -35.24830000     -68.41710000
H      -45.34360000     -35.52820000     -69.80410000
C      -45.27420000     -32.28590000     -73.09750000
H      -46.31840000     -32.54150000     -72.89770000
H      -45.34880000     -31.21990000     -72.90650000
C      -44.28970000     -32.85710000     -72.14910000
H      -44.52300000     -33.83930000     -71.75000000
H      -43.32220000     -32.83450000     -72.69360000
C      -46.74760000     -33.81420000     -70.09060000
H      -47.78850000     -33.79530000     -70.23130000
H      -46.32130000     -33.69560000     -71.13010000
C      -46.18890000     -32.66140000     -69.29630000
C      -46.73630000     -32.21340000     -68.11600000
C      -45.05150000     -31.89370000     -69.80850000
H      -47.50080000     -32.77200000     -67.75000000
C      -44.74400000     -30.80350000     -68.99420000
C      -44.20410000     -31.93940000     -70.95780000
C      -43.32480000     -30.85200000     -70.95820000
S      -45.79390000     -30.85350000     -67.52640000
S      -43.60190000     -29.69090000     -69.67040000
H      -42.60070000     -30.66740000     -71.67620000
