40
Properties=species:S:1:pos:R:3 #=T CELL(abcABC):=T 1.889726e+02=T 90.00000=T Traj:=T positionsangstrom=T Step:=T 0=T Bead:=T pbc="F F F"
C      -43.64630000     -34.69220000     -75.27810000
C      -43.19690000     -34.47980000     -73.94230000
C      -43.35380000     -33.14950000     -73.40670000
C      -43.98710000     -32.12450000     -74.06520000
C      -44.53580000     -32.43140000     -75.34330000
C      -44.37770000     -33.66660000     -75.94970000
H      -43.45170000     -35.65670000     -75.74710000
H      -42.77570000     -32.95940000     -72.54160000
H      -45.04450000     -31.60550000     -75.82250000
H      -44.85450000     -33.85120000     -76.93040000
C      -43.87170000     -30.66390000     -73.63530000
H      -43.65990000     -30.15010000     -74.51790000
H      -43.11760000     -30.60080000     -72.82690000
C      -42.69490000     -35.63540000     -73.05630000
H      -41.87990000     -36.13060000     -73.60680000
H      -42.30870000     -35.20890000     -72.10730000
S      -45.47860000     -29.89270000     -73.13040000
S      -43.92430000     -36.94140000     -72.66630000
C      -46.10710000     -31.19080000     -71.87220000
H      -47.02810000     -30.75620000     -71.42780000
H      -46.30770000     -32.14310000     -72.45780000
C      -45.11040000     -35.94630000     -71.73750000
H      -45.74190000     -36.68690000     -71.22940000
H      -45.71390000     -35.37070000     -72.40880000
C      -44.56140000     -34.92030000     -70.64040000
H      -43.71430000     -35.24240000     -70.09630000
H      -44.21810000     -34.06430000     -71.20160000
C      -45.19350000     -31.39650000     -70.69800000
H      -44.80740000     -30.36630000     -70.38820000
H      -44.43650000     -32.09970000     -70.94970000
C      -46.05780000     -31.92150000     -69.55010000
C      -46.88660000     -31.06970000     -68.87550000
C      -46.10880000     -33.30840000     -69.10710000
H      -46.96030000     -30.00430000     -68.98400000
C      -47.01030000     -33.42430000     -68.00860000
C      -45.63220000     -34.63290000     -69.54690000
C      -46.02630000     -35.57400000     -68.67470000
S      -47.84930000     -31.95020000     -67.72250000
S      -47.09570000     -35.02650000     -67.34340000
H      -45.71530000     -36.58850000     -68.75960000
