40
Properties=species:S:1:pos:R:3 #=T CELL(abcABC):=T 1.889726e+02=T 90.00000=T Traj:=T positionsangstrom=T Step:=T 0=T Bead:=T pbc="F F F"
C      -43.96560000     -34.68170000     -75.11400000
C      -43.23490000     -34.40250000     -73.92900000
C      -43.17120000     -33.09830000     -73.49740000
C      -43.79070000     -32.05030000     -74.21730000
C      -44.54070000     -32.33320000     -75.35740000
C      -44.55190000     -33.64960000     -75.84880000
H      -44.21270000     -35.71690000     -75.39350000
H      -42.64140000     -32.83780000     -72.59700000
H      -45.13000000     -31.61560000     -75.91700000
H      -45.08650000     -33.86650000     -76.77760000
C      -43.81670000     -30.59740000     -73.63030000
H      -43.43300000     -29.78200000     -74.37750000
H      -43.27660000     -30.37130000     -72.71800000
C      -42.47620000     -35.49810000     -73.19490000
H      -41.81340000     -36.09590000     -73.89500000
H      -41.83100000     -35.01990000     -72.46590000
S      -45.65150000     -30.07690000     -73.30470000
S      -43.56600000     -36.81740000     -72.37680000
C      -46.36410000     -31.25590000     -72.03940000
H      -47.33510000     -30.76410000     -71.72630000
H      -46.53510000     -32.25500000     -72.46510000
C      -44.82730000     -35.65640000     -71.53500000
H      -45.55340000     -36.31880000     -71.08350000
H      -45.28690000     -35.14800000     -72.36470000
C      -44.31200000     -34.75270000     -70.45860000
H      -43.56380000     -35.27010000     -69.91100000
H      -44.03170000     -33.86460000     -70.85460000
C      -45.42910000     -31.32470000     -70.76710000
H      -45.05380000     -30.36150000     -70.49050000
H      -44.45220000     -31.80450000     -71.13910000
C      -46.12990000     -31.90140000     -69.55150000
C      -46.98180000     -31.15970000     -68.80180000
C      -46.18880000     -33.32580000     -69.14470000
H      -47.09750000     -30.08700000     -68.90850000
C      -47.08490000     -33.57050000     -68.08060000
C      -45.51840000     -34.56200000     -69.44100000
C      -46.05050000     -35.63600000     -68.85050000
S      -47.73640000     -32.01690000     -67.43260000
S      -47.35750000     -35.24020000     -67.72890000
H      -45.65000000     -36.66360000     -68.69080000
