40
Properties=species:S:1:pos:R:3 #=T CELL(abcABC):=T 1.889726e+02=T 90.00000=T Traj:=T positionsangstrom=T Step:=T 0=T Bead:=T pbc="F F F"
C      -43.73970000     -34.75490000     -75.12160000
C      -42.99170000     -34.39240000     -73.98460000
C      -43.17750000     -33.06980000     -73.50190000
C      -43.92610000     -32.08330000     -74.18680000
C      -44.73800000     -32.53790000     -75.26160000
C      -44.59420000     -33.81150000     -75.75780000
H      -43.63960000     -35.69020000     -75.62330000
H      -42.54690000     -32.81960000     -72.63900000
H      -45.47770000     -31.84810000     -75.75560000
H      -45.20360000     -34.15420000     -76.53080000
C      -43.92280000     -30.62450000     -73.73590000
H      -43.57210000     -29.97620000     -74.51880000
H      -43.23470000     -30.53940000     -72.90020000
C      -42.20600000     -35.40280000     -73.21580000
H      -41.57980000     -35.95400000     -73.85360000
H      -41.52280000     -34.98380000     -72.45120000
S      -45.68680000     -30.11240000     -73.27320000
S      -43.37370000     -36.64120000     -72.45600000
C      -46.21310000     -31.46190000     -72.17900000
H      -47.31360000     -31.43260000     -72.03600000
H      -45.98600000     -32.39140000     -72.65240000
C      -44.86670000     -35.64900000     -71.80480000
H      -45.65270000     -36.36630000     -71.64050000
H      -45.19720000     -34.93640000     -72.63750000
C      -44.58680000     -34.92460000     -70.50840000
H      -43.87200000     -35.63270000     -69.99280000
H      -43.88090000     -34.06050000     -70.69470000
C      -45.35870000     -31.32170000     -70.77950000
H      -45.20140000     -30.27520000     -70.56060000
H      -44.38730000     -31.81510000     -70.82120000
C      -46.15330000     -31.96340000     -69.56180000
C      -46.83230000     -31.11330000     -68.69330000
C      -46.23370000     -33.33520000     -69.09780000
H      -46.73290000     -30.09070000     -68.65890000
C      -47.15870000     -33.44140000     -68.01120000
C      -45.78290000     -34.64220000     -69.53230000
C      -46.31330000     -35.65790000     -68.81770000
S      -47.75620000     -31.94510000     -67.42050000
S      -47.39370000     -35.12080000     -67.55120000
H      -45.90700000     -36.71890000     -68.84380000
