40
Properties=species:S:1:pos:R:3 #=T CELL(abcABC):=T 1.889726e+02=T 90.00000=T Traj:=T positionsangstrom=T Step:=T 0=T Bead:=T pbc="F F F"
C      -43.31570000     -35.41720000     -69.00670000
C      -44.45470000     -34.78060000     -68.52570000
C      -45.66730000     -35.31900000     -68.84910000
C      -45.80480000     -36.40090000     -69.68170000
C      -44.67080000     -36.96000000     -70.27770000
C      -43.39890000     -36.41700000     -69.94530000
H      -42.27210000     -35.05980000     -68.70170000
H      -46.63570000     -34.74930000     -68.56210000
H      -44.76450000     -37.60880000     -71.12220000
H      -42.47010000     -36.85740000     -70.29660000
C      -47.13700000     -37.04070000     -70.03080000
H      -47.52370000     -37.48050000     -69.10010000
H      -46.93180000     -37.87880000     -70.75250000
C      -44.36210000     -33.47950000     -67.78150000
H      -45.29040000     -32.99940000     -67.88300000
H      -44.26670000     -33.74750000     -66.75120000
S      -48.42260000     -35.83240000     -70.64020000
S      -43.03650000     -32.30830000     -68.20180000
C      -47.73750000     -35.10440000     -72.17160000
H      -47.23490000     -35.93220000     -72.76210000
H      -48.48660000     -34.67670000     -72.74450000
C      -43.69320000     -31.47780000     -69.63770000
H      -43.05980000     -30.67810000     -69.80920000
H      -44.62380000     -31.01280000     -69.41040000
C      -43.82550000     -32.42920000     -70.85920000
H      -42.90440000     -32.87640000     -70.87760000
H      -44.46430000     -33.28100000     -70.65990000
C      -46.72760000     -33.97420000     -71.82110000
H      -45.92340000     -34.39270000     -71.27390000
H      -47.11760000     -33.18230000     -71.07970000
C      -46.26680000     -33.11930000     -72.96330000
C      -47.03290000     -32.99850000     -74.15740000
C      -45.28810000     -32.05340000     -72.93440000
H      -47.88300000     -33.59090000     -74.47600000
C      -45.35140000     -31.20910000     -74.03880000
C      -44.18430000     -31.60470000     -72.04550000
C      -43.59370000     -30.39550000     -72.49450000
S      -46.67510000     -31.64730000     -75.13290000
S      -44.25000000     -29.78260000     -74.00210000
H      -42.85690000     -29.77280000     -72.04170000
