40
Properties=species:S:1:pos:R:3 #=T CELL(abcABC):=T 1.889726e+02=T 90.00000=T Traj:=T positionsangstrom=T Step:=T 0=T Bead:=T pbc="F F F"
C      -43.54540000     -35.71610000     -74.07690000
C      -44.70030000     -34.90710000     -74.00790000
C      -45.79260000     -35.43360000     -73.30790000
C      -45.67550000     -36.64280000     -72.62850000
C      -44.45430000     -37.25790000     -72.60760000
C      -43.34210000     -36.85360000     -73.34470000
H      -42.79150000     -35.43510000     -74.81980000
H      -46.79020000     -35.03640000     -73.42940000
H      -44.46890000     -38.23750000     -72.13110000
H      -42.42210000     -37.42700000     -73.40620000
C      -46.75930000     -37.16280000     -71.55390000
H      -46.88160000     -38.31730000     -71.63340000
H      -47.70140000     -36.85640000     -71.83420000
C      -44.88450000     -33.76610000     -74.97890000
H      -44.66300000     -34.24450000     -75.98360000
H      -45.83970000     -33.22250000     -74.92420000
S      -46.33710000     -36.77410000     -69.87320000
S      -43.62020000     -32.43100000     -74.87260000
C      -45.80290000     -35.00390000     -69.89300000
H      -45.76470000     -34.78510000     -68.79700000
H      -44.77270000     -34.92880000     -70.35840000
C      -44.07810000     -31.40940000     -73.40680000
H      -44.97800000     -30.81140000     -73.60160000
H      -43.18880000     -30.81730000     -73.23170000
C      -44.26630000     -32.24240000     -72.09330000
H      -45.10760000     -32.93720000     -72.26670000
H      -43.48110000     -32.94410000     -71.78930000
C      -46.85820000     -34.03980000     -70.56650000
H      -47.77490000     -34.43880000     -70.19980000
H      -46.69380000     -33.95850000     -71.61160000
C      -46.73760000     -32.68420000     -69.90010000
C      -47.61550000     -32.39220000     -68.89460000
C      -45.69250000     -31.61630000     -70.01140000
H      -48.55080000     -32.93580000     -68.76120000
C      -45.81860000     -30.64580000     -68.91770000
C      -44.66720000     -31.30850000     -70.94860000
C      -43.82670000     -30.36590000     -70.43970000
S      -47.25940000     -30.94180000     -67.92740000
S      -44.41260000     -29.65180000     -68.94050000
H      -42.95710000     -29.91750000     -70.89080000
