40
Properties=species:S:1:pos:R:3 #=T CELL(abcABC):=T 1.889726e+02=T 90.00000=T Traj:=T positionsangstrom=T Step:=T 0=T Bead:=T pbc="F F F"
C      -43.44470000     -35.73880000     -74.06200000
C      -44.65090000     -35.05180000     -74.23330000
C      -45.78620000     -35.52980000     -73.48980000
C      -45.69910000     -36.63300000     -72.64200000
C      -44.49950000     -37.25940000     -72.57070000
C      -43.34200000     -36.85310000     -73.25580000
H      -42.55010000     -35.27170000     -74.38440000
H      -46.73220000     -34.95510000     -73.59420000
H      -44.34590000     -37.93370000     -71.71650000
H      -42.40220000     -37.41980000     -73.19840000
C      -46.82290000     -36.92500000     -71.72300000
H      -47.23270000     -37.97200000     -71.89430000
H      -47.61960000     -36.20820000     -71.85860000
C      -44.84880000     -33.80100000     -74.92410000
H      -44.85540000     -34.03240000     -75.98580000
H      -45.85630000     -33.41440000     -74.70670000
S      -46.23950000     -36.69470000     -69.87840000
S      -43.57160000     -32.49450000     -74.80740000
C      -45.65190000     -35.01290000     -69.96120000
H      -45.36750000     -34.72450000     -68.98670000
H      -44.78660000     -34.93010000     -70.61180000
C      -44.07290000     -31.37450000     -73.43030000
H      -44.92230000     -30.68490000     -73.62870000
H      -43.25000000     -30.70340000     -73.36200000
C      -44.27710000     -32.14630000     -72.08180000
H      -45.01170000     -32.94640000     -72.20980000
H      -43.27530000     -32.58460000     -71.86870000
C      -46.71110000     -34.07100000     -70.54660000
H      -47.72380000     -34.52750000     -70.46220000
H      -46.64830000     -33.93170000     -71.71110000
C      -46.66310000     -32.79700000     -69.80340000
C      -47.64460000     -32.47600000     -68.89040000
C      -45.64710000     -31.77710000     -69.89930000
H      -48.55850000     -33.01440000     -68.70590000
C      -45.82870000     -30.80980000     -68.85160000
C      -44.62560000     -31.38130000     -70.80640000
C      -43.91860000     -30.29070000     -70.36330000
S      -47.33110000     -30.98920000     -67.97140000
S      -44.64520000     -29.51270000     -68.97070000
H      -43.22250000     -29.69470000     -70.85000000
