40
Properties=species:S:1:pos:R:3 #=T CELL(abcABC):=T 1.889726e+02=T 90.00000=T Traj:=T positionsangstrom=T Step:=T 0=T Bead:=T pbc="F F F"
C      -48.62800000     -34.61280000     -68.89750000
C      -47.74670000     -33.64520000     -68.56400000
C      -46.37770000     -33.93480000     -68.43640000
C      -45.93010000     -35.24380000     -68.53170000
C      -46.81240000     -36.30360000     -68.86390000
C      -48.13640000     -35.97240000     -69.00390000
H      -49.69280000     -34.38720000     -69.00250000
H      -45.75580000     -32.99950000     -68.17680000
H      -46.34450000     -37.36440000     -68.96070000
H      -48.88070000     -36.68870000     -69.44150000
C      -44.49120000     -35.57870000     -68.34460000
H      -44.36790000     -36.28580000     -67.55610000
H      -43.94950000     -34.64500000     -68.13520000
C      -48.22060000     -32.12750000     -68.48860000
H      -48.98110000     -32.10580000     -69.26040000
H      -48.77310000     -31.97400000     -67.53430000
S      -43.75960000     -36.42480000     -69.96910000
S      -46.86850000     -30.82070000     -68.75860000
C      -43.70220000     -35.06020000     -71.16510000
H      -43.48270000     -34.05640000     -70.64450000
H      -42.87920000     -35.32560000     -71.79840000
C      -46.54790000     -30.79300000     -70.59550000
H      -46.44660000     -29.73780000     -70.89770000
H      -47.34000000     -31.23800000     -71.14740000
C      -45.25200000     -31.56990000     -70.89810000
H      -44.46280000     -31.03880000     -70.28780000
H      -45.29790000     -32.57830000     -70.50570000
C      -44.90190000     -35.00270000     -72.04560000
H      -45.83180000     -34.65420000     -71.55600000
H      -45.06840000     -36.06900000     -72.49530000
C      -44.52130000     -34.17190000     -73.23030000
C      -44.10220000     -34.79120000     -74.42060000
C      -44.40210000     -32.72330000     -73.25220000
H      -44.08580000     -35.86790000     -74.48610000
C      -43.92290000     -32.29420000     -74.55140000
C      -44.79000000     -31.62180000     -72.42910000
C      -44.48210000     -30.44900000     -73.06430000
S      -43.57890000     -33.64360000     -75.58950000
S      -43.89970000     -30.57870000     -74.68890000
H      -44.56490000     -29.46720000     -72.74230000
