40
Properties=species:S:1:pos:R:3 #=T CELL(abcABC):=T 1.889726e+02=T 90.00000=T Traj:=T positionsangstrom=T Step:=T 0=T Bead:=T pbc="F F F"
C      -43.42740000     -35.68640000     -74.27570000
C      -44.70110000     -34.98850000     -74.30620000
C      -45.78460000     -35.43340000     -73.53300000
C      -45.50160000     -36.60330000     -72.76620000
C      -44.29190000     -37.32340000     -72.78090000
C      -43.20020000     -36.80500000     -73.48790000
H      -42.63130000     -35.24350000     -74.89000000
H      -46.79940000     -35.02320000     -73.48020000
H      -44.26120000     -38.23130000     -72.20160000
H      -42.32250000     -37.38700000     -73.64200000
C      -46.63100000     -37.10980000     -71.90900000
H      -46.97110000     -38.21460000     -72.03530000
H      -47.44140000     -36.49690000     -72.14810000
C      -44.78960000     -33.61770000     -75.04910000
H      -44.64770000     -33.85160000     -76.10060000
H      -45.73350000     -33.16340000     -75.02210000
S      -46.40990000     -36.89640000     -70.10890000
S      -43.37460000     -32.56270000     -74.50050000
C      -45.83420000     -35.15730000     -69.90200000
H      -45.59010000     -35.00870000     -68.86910000
H      -44.86040000     -34.99730000     -70.38570000
C      -44.25880000     -31.76710000     -73.12570000
H      -45.35180000     -31.87510000     -73.39060000
H      -44.07410000     -30.66090000     -73.17740000
C      -43.94980000     -32.36630000     -71.66900000
H      -44.35560000     -33.35040000     -71.51220000
H      -42.81870000     -32.44800000     -71.50180000
C      -46.86320000     -34.12500000     -70.30400000
H      -47.87040000     -34.53090000     -70.14950000
H      -46.89720000     -33.88990000     -71.40170000
C      -46.66420000     -32.80510000     -69.54710000
C      -47.55710000     -32.46600000     -68.55690000
C      -45.70190000     -31.67980000     -69.77070000
H      -48.41010000     -33.11180000     -68.30460000
C      -45.99870000     -30.55650000     -69.02430000
C      -44.55140000     -31.49530000     -70.62290000
C      -43.99390000     -30.26290000     -70.45820000
S      -47.26010000     -30.82530000     -67.89110000
S      -44.91170000     -29.20800000     -69.30800000
H      -43.12630000     -29.97150000     -71.08920000
