40
Properties=species:S:1:pos:R:3 #=T CELL(abcABC):=T 1.889726e+02=T 90.00000=T Traj:=T positionsangstrom=T Step:=T 0=T Bead:=T pbc="F F F"
C      -43.35370000     -35.95180000     -74.56520000
C      -44.41050000     -35.03680000     -74.39610000
C      -45.51240000     -35.36430000     -73.53980000
C      -45.42770000     -36.51700000     -72.72190000
C      -44.40450000     -37.46630000     -72.94780000
C      -43.32800000     -37.06690000     -73.73310000
H      -42.59780000     -35.82120000     -75.28620000
H      -46.30190000     -34.59370000     -73.43220000
H      -44.43210000     -38.38760000     -72.33150000
H      -42.45740000     -37.70260000     -73.82130000
C      -46.55480000     -37.03570000     -71.94170000
H      -46.63840000     -38.06750000     -72.25670000
H      -47.52090000     -36.52060000     -72.14340000
C      -44.52040000     -33.81590000     -75.22460000
H      -44.08690000     -33.98490000     -76.18900000
H      -45.55330000     -33.41600000     -75.07570000
S      -46.55000000     -37.05400000     -70.04930000
S      -43.37230000     -32.42910000     -74.55270000
C      -45.86620000     -35.34560000     -69.67630000
H      -45.75020000     -35.24770000     -68.61140000
H      -44.89270000     -35.23770000     -70.17710000
C      -44.31610000     -31.58160000     -73.15690000
H      -45.32390000     -31.48820000     -73.43270000
H      -43.80150000     -30.62640000     -73.07660000
C      -44.05440000     -32.22410000     -71.71000000
H      -44.48110000     -33.22970000     -71.66660000
H      -42.99460000     -32.35110000     -71.62400000
C      -46.80600000     -34.16470000     -70.13010000
H      -47.76420000     -34.41380000     -69.87710000
H      -46.64390000     -34.02010000     -71.20240000
C      -46.63320000     -32.75560000     -69.39140000
C      -47.55010000     -32.42610000     -68.39970000
C      -45.73890000     -31.66580000     -69.68090000
H      -48.32350000     -33.01870000     -67.98450000
C      -45.95500000     -30.54110000     -68.91090000
C      -44.64720000     -31.37930000     -70.65960000
C      -44.13760000     -30.12250000     -70.52740000
S      -47.34350000     -30.72850000     -67.87550000
S      -44.91000000     -29.19140000     -69.24720000
H      -43.37940000     -29.64360000     -71.10670000
