40
Properties=species:S:1:pos:R:3 #=T CELL(abcABC):=T 1.889726e+02=T 90.00000=T Traj:=T positionsangstrom=T Step:=T 0=T Bead:=T pbc="F F F"
C      -48.27490000     -34.58390000     -69.00930000
C      -47.38160000     -33.59710000     -68.69420000
C      -46.06280000     -33.95700000     -68.47680000
C      -45.59260000     -35.24480000     -68.55250000
C      -46.52140000     -36.21850000     -68.99990000
C      -47.83720000     -35.91870000     -69.14990000
H      -49.36740000     -34.48760000     -69.24220000
H      -45.28330000     -33.26790000     -68.06120000
H      -46.29610000     -37.20960000     -69.11730000
H      -48.54880000     -36.67690000     -69.47380000
C      -44.20030000     -35.58240000     -68.19440000
H      -44.09200000     -36.38840000     -67.43960000
H      -43.72240000     -34.71470000     -67.75580000
C      -47.92010000     -32.18540000     -68.49530000
H      -48.76320000     -32.03200000     -69.19130000
H      -48.28450000     -32.09080000     -67.48940000
S      -43.27050000     -36.11590000     -69.69620000
S      -46.58810000     -30.93710000     -68.62680000
C      -43.55680000     -34.74160000     -70.81930000
H      -43.60140000     -33.79970000     -70.18760000
H      -42.69440000     -34.74130000     -71.48300000
C      -46.38790000     -30.78600000     -70.46130000
H      -45.95710000     -29.82380000     -70.59010000
H      -47.29660000     -30.77050000     -70.98500000
C      -45.44840000     -31.78200000     -71.12210000
H      -44.50430000     -31.87980000     -70.55760000
H      -45.96230000     -32.69410000     -71.02310000
C      -44.74540000     -34.91640000     -71.80770000
H      -45.75240000     -34.71230000     -71.33490000
H      -44.84640000     -36.04510000     -71.97460000
C      -44.60460000     -34.10720000     -73.11900000
C      -44.19690000     -34.84550000     -74.16230000
C      -44.74810000     -32.71670000     -73.36860000
H      -44.07980000     -35.93560000     -74.30200000
C      -44.41440000     -32.39310000     -74.67400000
C      -45.22280000     -31.51370000     -72.64860000
C      -45.19490000     -30.36540000     -73.40970000
S      -43.98340000     -33.85450000     -75.54230000
S      -44.55910000     -30.71940000     -75.03560000
H      -45.60760000     -29.40100000     -73.21290000
