40
Properties=species:S:1:pos:R:3 #=T CELL(abcABC):=T 1.889726e+02=T 90.00000=T Traj:=T positionsangstrom=T Step:=T 0=T Bead:=T pbc="F F F"
C      -48.13740000     -34.58390000     -69.15860000
C      -47.29230000     -33.62200000     -68.61830000
C      -46.09550000     -34.04620000     -68.12440000
C      -45.59750000     -35.31810000     -68.45970000
C      -46.46230000     -36.26400000     -68.99650000
C      -47.78260000     -35.92560000     -69.29830000
H      -49.20500000     -34.41090000     -69.34050000
H      -45.41650000     -33.30710000     -67.62710000
H      -46.23830000     -37.33230000     -69.03520000
H      -48.49470000     -36.70940000     -69.57290000
C      -44.15610000     -35.73090000     -68.15500000
H      -44.21790000     -36.63630000     -67.52500000
H      -43.64500000     -34.99200000     -67.45210000
C      -47.82050000     -32.16440000     -68.45340000
H      -48.69070000     -32.00350000     -69.08010000
H      -48.13800000     -32.03170000     -67.36190000
S      -43.16890000     -36.09390000     -69.71280000
S      -46.63530000     -30.74640000     -68.71450000
C      -43.45740000     -34.70280000     -70.99840000
H      -43.37790000     -33.73660000     -70.56360000
H      -42.54140000     -34.68830000     -71.65410000
C      -46.38460000     -30.48720000     -70.55710000
H      -45.77280000     -29.52620000     -70.50450000
H      -47.31780000     -30.39540000     -71.15740000
C      -45.65960000     -31.72140000     -71.15080000
H      -44.84680000     -32.10160000     -70.48420000
H      -46.43950000     -32.54500000     -71.11690000
C      -44.74780000     -34.89500000     -71.76750000
H      -45.57470000     -34.39390000     -71.27710000
H      -45.01450000     -35.90470000     -71.91390000
C      -44.48230000     -34.23380000     -73.10950000
C      -44.28460000     -34.90040000     -74.26970000
C      -44.73860000     -32.84710000     -73.32510000
H      -44.01110000     -35.99370000     -74.29750000
C      -44.42460000     -32.42580000     -74.62810000
C      -45.12340000     -31.63840000     -72.52980000
C      -45.11550000     -30.50120000     -73.27290000
S      -44.12700000     -33.81530000     -75.66380000
S      -44.68490000     -30.77600000     -74.93790000
H      -45.41660000     -29.58790000     -72.86070000
