40
Properties=species:S:1:pos:R:3 #=T CELL(abcABC):=T 1.889726e+02=T 90.00000=T Traj:=T positionsangstrom=T Step:=T 0=T Bead:=T pbc="F F F"
C      -48.08130000     -34.44830000     -69.28380000
C      -47.29700000     -33.44470000     -68.69000000
C      -46.00420000     -33.79020000     -68.33260000
C      -45.50240000     -35.08890000     -68.55800000
C      -46.32090000     -36.09200000     -69.21100000
C      -47.54690000     -35.68330000     -69.63050000
H      -49.00590000     -34.12810000     -69.68310000
H      -45.44520000     -32.98400000     -67.90570000
H      -45.83900000     -37.10630000     -69.23740000
H      -48.18770000     -36.34830000     -70.18740000
C      -44.04210000     -35.30080000     -68.27530000
H      -43.88480000     -36.01290000     -67.38190000
H      -43.52860000     -34.34590000     -67.92130000
C      -47.77350000     -32.00290000     -68.39780000
H      -48.62980000     -31.75140000     -69.02890000
H      -47.97860000     -31.99080000     -67.38050000
S      -43.09940000     -36.05220000     -69.67830000
S      -46.54620000     -30.66650000     -68.58230000
C      -43.41750000     -34.90050000     -71.12110000
H      -43.50260000     -33.85880000     -70.62820000
H      -42.56630000     -34.89740000     -71.71810000
C      -46.33370000     -30.63790000     -70.43300000
H      -45.89370000     -29.70850000     -70.74940000
H      -47.33120000     -30.64150000     -70.82040000
C      -45.53030000     -31.86310000     -70.91890000
H      -44.55470000     -31.94130000     -70.36410000
H      -46.07650000     -32.80520000     -70.66450000
C      -44.63160000     -35.28140000     -71.88900000
H      -45.49710000     -35.17470000     -71.33000000
H      -44.73280000     -36.36850000     -72.11650000
C      -44.53220000     -34.41550000     -73.13370000
C      -44.22000000     -34.97880000     -74.37850000
C      -44.78190000     -32.97730000     -73.22360000
H      -43.96950000     -35.97210000     -74.59280000
C      -44.64850000     -32.57970000     -74.53960000
C      -45.30210000     -31.90630000     -72.41120000
C      -45.29410000     -30.70410000     -73.10470000
S      -44.26250000     -33.80000000     -75.66120000
S      -44.96130000     -30.89660000     -74.81010000
H      -45.66080000     -29.73540000     -72.70980000
