40
Properties=species:S:1:pos:R:3 #=T CELL(abcABC):=T 1.889726e+02=T 90.00000=T Traj:=T positionsangstrom=T Step:=T 0=T Bead:=T pbc="F F F"
C      -47.91590000     -33.78150000     -69.08180000
C      -46.87890000     -33.15070000     -68.40120000
C      -45.64360000     -33.86800000     -68.16280000
C      -45.49900000     -35.23350000     -68.41410000
C      -46.66640000     -35.93970000     -68.92770000
C      -47.81960000     -35.20600000     -69.32170000
H      -48.83900000     -33.20640000     -69.30880000
H      -44.78560000     -33.33480000     -67.75610000
H      -46.65930000     -37.01450000     -69.04320000
H      -48.63480000     -35.79580000     -69.79780000
C      -44.15290000     -35.89600000     -68.18730000
H      -44.11570000     -36.82140000     -67.57700000
H      -43.47560000     -35.16430000     -67.61960000
C      -46.95720000     -31.66480000     -68.08840000
H      -47.74160000     -31.24380000     -68.62070000
H      -46.91690000     -31.43980000     -67.04680000
S      -43.38430000     -36.37450000     -69.76550000
S      -45.51770000     -30.67080000     -68.56060000
C      -43.48110000     -34.88520000     -70.88910000
H      -43.55320000     -33.91450000     -70.38440000
H      -42.49350000     -34.82250000     -71.47860000
C      -45.64080000     -30.57280000     -70.40360000
H      -44.83620000     -29.94950000     -70.73030000
H      -46.58680000     -30.00910000     -70.72080000
C      -45.60090000     -31.94600000     -71.09700000
H      -44.72300000     -32.33810000     -70.60390000
H      -46.37050000     -32.53410000     -70.80470000
C      -44.74590000     -35.04320000     -71.81660000
H      -45.67640000     -34.69740000     -71.32310000
H      -45.00190000     -36.06880000     -71.94140000
C      -44.70520000     -34.34040000     -73.19050000
C      -44.47270000     -34.97680000     -74.37820000
C      -45.00590000     -32.94610000     -73.42970000
H      -44.34940000     -36.03130000     -74.47990000
C      -45.09160000     -32.63880000     -74.79650000
C      -45.45580000     -31.85200000     -72.62040000
C      -45.69450000     -30.67570000     -73.35050000
S      -44.52040000     -34.01770000     -75.74660000
S      -45.43360000     -30.96090000     -75.09230000
H      -45.95590000     -29.63960000     -73.02580000
