40
Properties=species:S:1:pos:R:3 #=T CELL(abcABC):=T 1.889726e+02=T 90.00000=T Traj:=T positionsangstrom=T Step:=T 0=T Bead:=T pbc="F F F"
C      -47.93650000     -33.53330000     -68.69370000
C      -46.74260000     -32.92810000     -68.27740000
C      -45.54610000     -33.66050000     -68.11230000
C      -45.44560000     -34.97240000     -68.52590000
C      -46.64330000     -35.64380000     -68.89450000
C      -47.89020000     -34.96690000     -68.91960000
H      -48.87300000     -32.97560000     -68.80330000
H      -44.60350000     -33.21620000     -67.86620000
H      -46.67030000     -36.75200000     -69.06380000
H      -48.82020000     -35.49220000     -69.15670000
C      -44.17320000     -35.74700000     -68.34500000
H      -44.37810000     -36.70040000     -67.76170000
H      -43.41970000     -35.16200000     -67.77780000
C      -46.65140000     -31.47200000     -67.83060000
H      -47.59140000     -30.94720000     -68.13490000
H      -46.50260000     -31.29320000     -66.74030000
S      -43.33160000     -36.40690000     -69.86650000
S      -45.14990000     -30.70090000     -68.60120000
C      -43.58040000     -35.17800000     -71.19800000
H      -43.41590000     -34.14700000     -70.78170000
H      -42.79620000     -35.49040000     -71.81920000
C      -45.46350000     -30.68120000     -70.38730000
H      -44.70000000     -30.06040000     -70.92250000
H      -46.34970000     -30.15530000     -70.57000000
C      -45.53010000     -32.04890000     -71.10250000
H      -44.70310000     -32.62630000     -70.76600000
H      -46.43200000     -32.63340000     -70.85360000
C      -44.98900000     -35.15010000     -71.82100000
H      -45.73910000     -34.72430000     -71.18150000
H      -45.32130000     -36.23080000     -71.85490000
C      -45.05170000     -34.49630000     -73.25760000
C      -44.93810000     -35.16900000     -74.43120000
C      -45.22810000     -33.06330000     -73.48890000
H      -44.79270000     -36.21780000     -74.63000000
C      -45.12770000     -32.74280000     -74.82660000
C      -45.47730000     -31.90110000     -72.60670000
C      -45.52400000     -30.70010000     -73.32690000
S      -44.83890000     -34.12910000     -75.80960000
S      -45.33470000     -30.97980000     -75.09690000
H      -45.91180000     -29.76900000     -73.01530000
