40
Properties=species:S:1:pos:R:3 #=T CELL(abcABC):=T 1.889726e+02=T 90.00000=T Traj:=T positionsangstrom=T Step:=T 0=T Bead:=T pbc="F F F"
C      -43.36440000     -35.56330000     -69.00900000
C      -44.44620000     -34.87970000     -68.50010000
C      -45.75130000     -35.29940000     -68.85740000
C      -45.94350000     -36.34350000     -69.76820000
C      -44.82020000     -37.05730000     -70.19700000
C      -43.52770000     -36.66230000     -69.83300000
H      -42.42240000     -35.25830000     -68.66290000
H      -46.52420000     -34.63550000     -68.65180000
H      -45.00590000     -37.90260000     -70.87920000
H      -42.63190000     -37.17180000     -70.20170000
C      -47.26040000     -36.80660000     -70.26660000
H      -47.63410000     -37.48010000     -69.46910000
H      -47.06120000     -37.35410000     -71.19820000
C      -44.31320000     -33.62250000     -67.62300000
H      -45.29650000     -33.14550000     -67.59610000
H      -44.21130000     -33.90700000     -66.58890000
S      -48.62300000     -35.46520000     -70.67930000
S      -42.97490000     -32.48490000     -68.03980000
C      -47.87870000     -34.80690000     -72.36180000
H      -47.93770000     -35.68080000     -72.97200000
H      -48.72390000     -34.11980000     -72.73240000
C      -43.64860000     -31.51620000     -69.45820000
H      -42.99930000     -30.69400000     -69.64730000
H      -44.55370000     -31.08460000     -69.18170000
C      -43.90980000     -32.41630000     -70.71860000
H      -42.93150000     -32.84760000     -70.90010000
H      -44.58560000     -33.20850000     -70.43650000
C      -46.51150000     -34.20040000     -72.21030000
H      -45.84450000     -35.10520000     -72.23310000
H      -46.34470000     -33.79700000     -71.22730000
C      -46.19170000     -33.18320000     -73.20230000
C      -46.78720000     -33.03260000     -74.41140000
C      -45.28290000     -32.05010000     -72.95610000
H      -47.43430000     -33.79020000     -74.87360000
C      -45.30090000     -31.15800000     -74.01620000
C      -44.33740000     -31.66720000     -71.97750000
C      -43.70160000     -30.50350000     -72.22920000
S      -46.39750000     -31.56160000     -75.32020000
S      -44.20640000     -29.78930000     -73.77120000
H      -42.83280000     -30.16090000     -71.69480000
