40
Properties=species:S:1:pos:R:3 #=T CELL(abcABC):=T 1.889726e+02=T 90.00000=T Traj:=T positionsangstrom=T Step:=T 0=T Bead:=T pbc="F F F"
C      -47.75740000     -33.57790000     -68.42860000
C      -46.52230000     -32.93040000     -68.29410000
C      -45.35540000     -33.72420000     -68.18800000
C      -45.41530000     -35.06900000     -68.41090000
C      -46.61450000     -35.71540000     -68.70750000
C      -47.77820000     -34.94010000     -68.74030000
H      -48.68890000     -33.08090000     -68.38220000
H      -44.32570000     -33.28140000     -67.97600000
H      -46.65300000     -36.78830000     -69.03300000
H      -48.65100000     -35.46370000     -68.96090000
C      -44.11830000     -35.83670000     -68.36930000
H      -44.23160000     -36.67600000     -67.69120000
H      -43.37080000     -35.15700000     -67.99180000
C      -46.47180000     -31.41950000     -68.05510000
H      -47.34230000     -30.89680000     -68.33040000
H      -46.28640000     -31.31800000     -66.96970000
S      -43.50310000     -36.47670000     -69.92570000
S      -45.07700000     -30.43100000     -68.72120000
C      -43.75040000     -35.13590000     -71.20220000
H      -43.67340000     -34.12970000     -70.72880000
H      -42.95050000     -35.13610000     -71.95040000
C      -45.57320000     -30.45860000     -70.49890000
H      -44.84320000     -29.86090000     -70.98520000
H      -46.53980000     -29.90020000     -70.51850000
C      -45.53970000     -31.89010000     -71.09090000
H      -44.68820000     -32.41780000     -70.69120000
H      -46.38370000     -32.51020000     -70.75400000
C      -45.07450000     -35.27950000     -71.90600000
H      -45.77360000     -34.91130000     -71.18330000
H      -45.31170000     -36.33270000     -72.14510000
C      -45.03430000     -34.52820000     -73.21970000
C      -44.97490000     -35.20180000     -74.39170000
C      -45.21980000     -33.11310000     -73.41170000
H      -44.76800000     -36.24630000     -74.60950000
C      -45.14010000     -32.79710000     -74.75940000
C      -45.42430000     -31.91080000     -72.57690000
C      -45.39520000     -30.79710000     -73.36120000
S      -45.11770000     -34.13660000     -75.80730000
S      -45.28660000     -31.09250000     -75.07630000
H      -45.34690000     -29.80090000     -72.98700000
