40
Properties=species:S:1:pos:R:3 #=T CELL(abcABC):=T 1.889726e+02=T 90.00000=T Traj:=T positionsangstrom=T Step:=T 0=T Bead:=T pbc="F F F"
C      -47.50050000     -33.63980000     -68.18110000
C      -46.37610000     -32.85940000     -68.11220000
C      -45.15080000     -33.49870000     -68.18240000
C      -45.07220000     -34.92820000     -68.18030000
C      -46.30370000     -35.65020000     -68.33830000
C      -47.50020000     -35.01300000     -68.29470000
H      -48.54560000     -33.21850000     -68.04390000
H      -44.33040000     -32.86570000     -68.27160000
H      -46.33170000     -36.68630000     -68.36450000
H      -48.48470000     -35.52370000     -68.39160000
C      -43.82330000     -35.66050000     -68.37970000
H      -43.50370000     -36.35240000     -67.61930000
H      -42.93460000     -35.03820000     -68.51860000
C      -46.43380000     -31.35120000     -67.97180000
H      -47.32980000     -30.89570000     -68.39680000
H      -46.33450000     -31.03170000     -66.97650000
S      -43.80640000     -36.67490000     -69.97180000
S      -45.13500000     -30.28230000     -68.80870000
C      -43.86050000     -35.27380000     -71.22620000
H      -43.56680000     -34.27290000     -70.79070000
H      -43.11550000     -35.60840000     -71.98790000
C      -45.50550000     -30.40350000     -70.59900000
H      -44.90580000     -29.53430000     -70.99220000
H      -46.59700000     -30.24860000     -70.80590000
C      -45.08460000     -31.70450000     -71.20270000
H      -44.02640000     -31.83600000     -71.06850000
H      -45.53810000     -32.53110000     -70.69410000
C      -45.33950000     -35.06820000     -71.80210000
H      -45.96860000     -34.42080000     -71.17510000
H      -45.83200000     -36.01590000     -71.84700000
C      -45.19980000     -34.53920000     -73.21210000
C      -45.24190000     -35.25520000     -74.35990000
C      -45.17130000     -33.09720000     -73.50040000
H      -45.29040000     -36.33050000     -74.42650000
C      -45.30010000     -32.86730000     -74.89600000
C      -45.20030000     -31.86740000     -72.70510000
C      -45.33160000     -30.78420000     -73.54360000
S      -45.36680000     -34.34980000     -75.83130000
S      -45.38860000     -31.20970000     -75.27600000
H      -45.55100000     -29.70900000     -73.17580000
