40
Properties=species:S:1:pos:R:3 #=T CELL(abcABC):=T 1.889726e+02=T 90.00000=T Traj:=T positionsangstrom=T Step:=T 0=T Bead:=T pbc="F F F"
C      -47.48400000     -33.63640000     -67.88630000
C      -46.43120000     -32.82320000     -68.05660000
C      -45.15720000     -33.43450000     -68.12370000
C      -45.05260000     -34.80140000     -68.19350000
C      -46.18300000     -35.61760000     -67.98100000
C      -47.42470000     -35.00170000     -67.92280000
H      -48.51820000     -33.20740000     -67.97500000
H      -44.27720000     -32.82290000     -68.27160000
H      -46.25270000     -36.69040000     -68.05130000
H      -48.36030000     -35.55130000     -67.93380000
C      -43.67240000     -35.47180000     -68.49080000
H      -43.43440000     -36.10560000     -67.60050000
H      -42.97230000     -34.68060000     -68.65640000
C      -46.61110000     -31.31040000     -68.10790000
H      -47.49210000     -31.09170000     -68.70480000
H      -46.75210000     -30.87920000     -67.04440000
S      -43.75260000     -36.59390000     -69.98880000
S      -45.13740000     -30.46670000     -68.81030000
C      -43.86510000     -35.45090000     -71.40100000
H      -43.25660000     -34.58530000     -71.08370000
H      -43.30010000     -35.79440000     -72.20880000
C      -45.47920000     -30.55900000     -70.63030000
H      -44.97400000     -29.72020000     -71.04980000
H      -46.46030000     -30.35960000     -70.92480000
C      -44.99730000     -31.78930000     -71.30160000
H      -43.89170000     -31.91110000     -71.11730000
H      -45.51470000     -32.59190000     -70.82200000
C      -45.26570000     -35.15130000     -71.83030000
H      -45.73580000     -34.57940000     -71.05380000
H      -45.91710000     -36.02730000     -71.89370000
C      -45.39370000     -34.44580000     -73.16640000
C      -45.38780000     -35.25730000     -74.24600000
C      -45.30900000     -33.01550000     -73.49490000
H      -45.38330000     -36.34030000     -74.32620000
C      -45.47070000     -32.85000000     -74.88600000
C      -45.23580000     -31.79570000     -72.81240000
C      -45.32140000     -30.70550000     -73.70910000
S      -45.28600000     -34.34020000     -75.80770000
S      -45.39740000     -31.23290000     -75.42680000
H      -45.49070000     -29.56360000     -73.51070000
