40
Properties=species:S:1:pos:R:3 #=T CELL(abcABC):=T 1.889726e+02=T 90.00000=T Traj:=T positionsangstrom=T Step:=T 0=T Bead:=T pbc="F F F"
C      -47.49440000     -33.63900000     -67.60010000
C      -46.43470000     -32.83430000     -68.05370000
C      -45.24440000     -33.51240000     -68.35510000
C      -45.06340000     -34.87780000     -68.17810000
C      -46.16350000     -35.65300000     -67.84540000
C      -47.41220000     -35.02650000     -67.52770000
H      -48.44300000     -33.25550000     -67.24280000
H      -44.35340000     -32.82320000     -68.45830000
H      -46.17210000     -36.76070000     -67.75270000
H      -48.07720000     -35.66120000     -67.03620000
C      -43.72570000     -35.43300000     -68.49700000
H      -43.45270000     -36.04300000     -67.64140000
H      -42.98680000     -34.57670000     -68.61590000
C      -46.52290000     -31.32220000     -68.08720000
H      -47.46500000     -30.98080000     -68.41470000
H      -46.49100000     -31.00440000     -67.01570000
S      -43.62830000     -36.52930000     -69.93910000
S      -45.11150000     -30.40640000     -68.89290000
C      -43.88550000     -35.39690000     -71.45050000
H      -43.40400000     -34.42350000     -71.26150000
H      -43.42010000     -35.97660000     -72.30720000
C      -45.52400000     -30.39510000     -70.68240000
H      -44.95060000     -29.51060000     -71.05800000
H      -46.65190000     -30.26390000     -70.78380000
C      -45.09570000     -31.69140000     -71.34030000
H      -44.06470000     -31.96880000     -71.04240000
H      -45.68480000     -32.49590000     -70.92790000
C      -45.29730000     -35.15230000     -71.85710000
H      -45.79410000     -34.49670000     -71.13520000
H      -45.75040000     -36.15820000     -71.90750000
C      -45.34750000     -34.55340000     -73.23410000
C      -45.36010000     -35.26940000     -74.36840000
C      -45.29980000     -33.09550000     -73.57510000
H      -45.41970000     -36.35670000     -74.43290000
C      -45.42040000     -32.88200000     -74.96610000
C      -45.24170000     -31.85600000     -72.82550000
C      -45.29650000     -30.78200000     -73.68830000
S      -45.40400000     -34.39320000     -75.91570000
S      -45.40340000     -31.21110000     -75.38290000
H      -45.19250000     -29.68720000     -73.40890000
