40
Properties=species:S:1:pos:R:3 #=T CELL(abcABC):=T 1.889726e+02=T 90.00000=T Traj:=T positionsangstrom=T Step:=T 0=T Bead:=T pbc="F F F"
C      -47.35560000     -33.61150000     -67.45170000
C      -46.33720000     -32.76530000     -68.02210000
C      -45.13620000     -33.37660000     -68.29970000
C      -44.85630000     -34.72450000     -68.09650000
C      -45.82510000     -35.51720000     -67.59230000
C      -47.12660000     -34.99870000     -67.34840000
H      -48.38370000     -33.16240000     -67.37250000
H      -44.37100000     -32.77070000     -68.64570000
H      -45.59180000     -36.59380000     -67.55640000
H      -47.94040000     -35.57770000     -66.89020000
C      -43.54510000     -35.35290000     -68.55380000
H      -43.19770000     -35.85410000     -67.64340000
H      -42.78820000     -34.66220000     -68.91850000
C      -46.65390000     -31.35710000     -68.37040000
H      -47.38110000     -31.39670000     -69.19760000
H      -47.09490000     -30.86090000     -67.47660000
S      -43.75980000     -36.45220000     -70.07200000
S      -45.15930000     -30.41480000     -68.84500000
C      -43.88330000     -35.24630000     -71.43790000
H      -43.52050000     -34.25710000     -71.13760000
H      -43.25660000     -35.71150000     -72.20010000
C      -45.10760000     -30.44820000     -70.68560000
H      -44.17610000     -29.82480000     -70.97380000
H      -46.00160000     -30.07390000     -71.09800000
C      -44.96830000     -31.83310000     -71.33510000
H      -43.94230000     -32.25030000     -71.19470000
H      -45.60020000     -32.43710000     -70.80020000
C      -45.39150000     -35.16130000     -71.87090000
H      -45.91550000     -34.48430000     -71.19910000
H      -45.82260000     -36.16680000     -71.69290000
C      -45.60760000     -34.61110000     -73.28830000
C      -45.64670000     -35.36200000     -74.43900000
C      -45.51490000     -33.16620000     -73.57430000
H      -45.58880000     -36.43190000     -74.48180000
C      -45.50280000     -32.97900000     -74.96870000
C      -45.30840000     -31.90020000     -72.83220000
C      -45.26540000     -30.81530000     -73.69050000
S      -45.59730000     -34.43810000     -75.87250000
S      -45.39200000     -31.29280000     -75.39980000
H      -45.20480000     -29.82260000     -73.36830000
