40
Properties=species:S:1:pos:R:3 #=T CELL(abcABC):=T 1.889726e+02=T 90.00000=T Traj:=T positionsangstrom=T Step:=T 0=T Bead:=T pbc="F F F"
C      -47.30550000     -33.62640000     -67.59210000
C      -46.32260000     -32.85580000     -68.15520000
C      -45.05890000     -33.46930000     -68.41350000
C      -44.79540000     -34.79130000     -68.13720000
C      -45.79260000     -35.56320000     -67.59700000
C      -47.08320000     -35.06210000     -67.36860000
H      -48.26670000     -33.07180000     -67.30820000
H      -44.23790000     -32.86360000     -68.86970000
H      -45.55220000     -36.62870000     -67.54580000
H      -47.96270000     -35.61640000     -66.99060000
C      -43.48680000     -35.45300000     -68.54760000
H      -43.13980000     -36.13720000     -67.79110000
H      -42.61810000     -34.78270000     -68.82370000
C      -46.60470000     -31.37600000     -68.35330000
H      -47.55830000     -31.15580000     -68.88940000
H      -46.88370000     -30.98550000     -67.41010000
S      -43.70960000     -36.55850000     -70.01080000
S      -45.24930000     -30.25250000     -68.92870000
C      -43.94630000     -35.33850000     -71.42790000
H      -43.47430000     -34.37730000     -71.13500000
H      -43.29870000     -35.58820000     -72.26720000
C      -45.24010000     -30.46860000     -70.75230000
H      -44.36180000     -29.97910000     -71.07800000
H      -46.02420000     -29.77600000     -71.08680000
C      -45.23660000     -31.86560000     -71.29190000
H      -44.39570000     -32.45480000     -70.80970000
H      -46.16960000     -32.34420000     -71.09210000
C      -45.36810000     -35.21750000     -71.93060000
H      -45.90840000     -34.63560000     -71.19250000
H      -45.82380000     -36.20800000     -71.87630000
C      -45.44550000     -34.58170000     -73.27460000
C      -45.76820000     -35.33320000     -74.39180000
C      -45.21970000     -33.16360000     -73.54850000
H      -46.00720000     -36.36870000     -74.42780000
C      -45.31670000     -32.91210000     -74.92720000
C      -45.05320000     -31.94140000     -72.79520000
C      -45.23570000     -30.79140000     -73.54770000
S      -45.70580000     -34.34530000     -75.88090000
S      -45.49280000     -31.21050000     -75.29590000
H      -45.13790000     -29.75730000     -73.25380000
