40
Properties=species:S:1:pos:R:3 #=T CELL(abcABC):=T 1.889726e+02=T 90.00000=T Traj:=T positionsangstrom=T Step:=T 0=T Bead:=T pbc="F F F"
C      -46.36290000     -33.77300000     -69.04420000
C      -47.18770000     -34.05810000     -70.16510000
C      -47.61330000     -33.01370000     -70.97140000
C      -47.14010000     -31.72510000     -70.76470000
C      -46.28550000     -31.43800000     -69.72070000
C      -45.92830000     -32.43790000     -68.84450000
H      -45.90390000     -34.45610000     -68.38930000
H      -48.32960000     -33.19040000     -71.73840000
H      -45.90440000     -30.43510000     -69.58100000
H      -45.12420000     -32.26010000     -68.11780000
C      -47.55730000     -30.64800000     -71.77940000
H      -47.74200000     -29.73290000     -71.29040000
H      -48.43570000     -31.00460000     -72.46860000
C      -47.73910000     -35.49900000     -70.37770000
H      -47.16810000     -36.21870000     -69.75880000
H      -48.72870000     -35.52460000     -69.94310000
S      -45.99790000     -30.35740000     -72.87920000
S      -47.86250000     -36.15710000     -72.17080000
C      -45.78140000     -31.91620000     -73.84480000
H      -46.50020000     -32.65470000     -73.48860000
H      -46.00030000     -31.55850000     -74.88690000
C      -46.16750000     -36.72740000     -72.68270000
H      -46.32140000     -37.40030000     -73.55120000
H      -45.80700000     -37.34090000     -71.82340000
C      -45.05890000     -35.65280000     -72.92010000
H      -44.29090000     -36.08790000     -73.49810000
H      -45.44950000     -34.91360000     -73.58980000
C      -44.35660000     -32.45090000     -73.93180000
H      -43.61610000     -31.86690000     -74.49090000
H      -44.31370000     -33.48190000     -74.29800000
C      -43.71890000     -32.54090000     -72.50030000
C      -42.89770000     -31.56590000     -71.98960000
C      -43.87360000     -33.63220000     -71.58560000
H      -42.47190000     -30.75430000     -72.51360000
C      -43.16280000     -33.42780000     -70.38860000
C      -44.42000000     -35.00840000     -71.65400000
C      -44.12500000     -35.75590000     -70.52180000
S      -42.39120000     -31.83350000     -70.33120000
S      -43.19170000     -34.87710000     -69.37260000
H      -44.36690000     -36.80250000     -70.37560000
