40
Properties=species:S:1:pos:R:3 #=T CELL(abcABC):=T 1.889726e+02=T 90.00000=T Traj:=T positionsangstrom=T Step:=T 0=T Bead:=T pbc="F F F"
C      -45.85200000     -34.36720000     -69.21270000
C      -46.99600000     -34.35420000     -70.03730000
C      -47.46170000     -33.09070000     -70.53030000
C      -46.85220000     -31.87640000     -70.11610000
C      -45.79390000     -31.86990000     -69.20950000
C      -45.37860000     -33.15600000     -68.69690000
H      -45.40310000     -35.28640000     -68.84490000
H      -48.34750000     -32.99430000     -71.13720000
H      -45.30770000     -30.92300000     -68.84500000
H      -44.53390000     -33.20690000     -68.12000000
C      -47.18550000     -30.51160000     -70.74030000
H      -46.71760000     -29.72270000     -70.23380000
H      -48.27090000     -30.20170000     -70.65150000
C      -47.65800000     -35.59420000     -70.43990000
H      -47.19600000     -36.55370000     -70.00690000
H      -48.73370000     -35.67380000     -70.11370000
S      -46.77270000     -30.21110000     -72.54000000
S      -47.75700000     -35.64180000     -72.33860000
C      -46.55030000     -31.94780000     -73.36730000
H      -46.86010000     -32.72210000     -72.66930000
H      -47.13360000     -31.91370000     -74.23230000
C      -46.29570000     -36.54760000     -72.77410000
H      -46.49810000     -37.25230000     -73.58850000
H      -46.01820000     -37.17240000     -71.90810000
C      -45.16710000     -35.60570000     -73.17900000
H      -44.53130000     -36.10450000     -73.90120000
H      -45.70870000     -34.73970000     -73.64260000
C      -45.06630000     -32.11050000     -73.68870000
H      -44.86310000     -31.22080000     -74.34800000
H      -44.97660000     -32.92590000     -74.39910000
C      -44.05680000     -32.28610000     -72.58200000
C      -43.50860000     -31.28510000     -71.86250000
C      -43.89290000     -33.58260000     -71.87280000
H      -43.60820000     -30.21360000     -72.23200000
C      -43.02440000     -33.46430000     -70.77950000
C      -44.31200000     -34.99820000     -72.06840000
C      -43.70060000     -35.87090000     -71.17230000
S      -42.47510000     -31.88150000     -70.41940000
S      -42.61260000     -35.01890000     -70.08630000
H      -43.66160000     -36.99020000     -71.04470000
