40
Properties=species:S:1:pos:R:3 #=T CELL(abcABC):=T 1.889726e+02=T 90.00000=T Traj:=T positionsangstrom=T Step:=T 0=T Bead:=T pbc="F F F"
C      -43.60750000     -35.85140000     -68.99630000
C      -44.63710000     -35.02520000     -68.51930000
C      -45.95250000     -35.38450000     -68.82320000
C      -46.24520000     -36.36710000     -69.78960000
C      -45.17970000     -37.21740000     -70.12230000
C      -43.90480000     -36.97260000     -69.78130000
H      -42.54280000     -35.58600000     -68.66840000
H      -46.81180000     -34.72980000     -68.47450000
H      -45.40520000     -38.02110000     -70.83350000
H      -43.15600000     -37.75170000     -70.10850000
C      -47.63540000     -36.70380000     -70.26960000
H      -48.25580000     -37.09430000     -69.51900000
H      -47.70850000     -37.38510000     -71.06210000
C      -44.40850000     -33.91460000     -67.52490000
H      -45.32590000     -33.27130000     -67.47760000
H      -44.09980000     -34.32140000     -66.53340000
S      -48.71650000     -35.21160000     -70.73570000
S      -43.02350000     -32.76140000     -67.93250000
C      -47.89290000     -34.62360000     -72.39250000
H      -47.74240000     -35.56360000     -72.94200000
H      -48.55380000     -33.95680000     -72.85250000
C      -43.58040000     -31.75520000     -69.43700000
H      -42.75340000     -31.10300000     -69.64520000
H      -44.44570000     -31.19450000     -69.22410000
C      -43.81730000     -32.48640000     -70.70390000
H      -42.81140000     -33.03980000     -71.00960000
H      -44.47280000     -33.31000000     -70.60140000
C      -46.54200000     -33.99230000     -72.16740000
H      -45.73600000     -34.70830000     -72.26290000
H      -46.44210000     -33.44160000     -71.22900000
C      -46.15840000     -32.93980000     -73.25100000
C      -46.71020000     -32.78890000     -74.48070000
C      -45.10630000     -32.02060000     -73.00860000
H      -47.60130000     -33.26830000     -74.77350000
C      -45.05730000     -31.02530000     -74.04170000
C      -44.21620000     -31.66320000     -71.88800000
C      -43.48470000     -30.54580000     -72.27710000
S      -46.09310000     -31.36040000     -75.39380000
S      -43.88460000     -29.75960000     -73.80580000
H      -42.70090000     -30.15740000     -71.55180000
