40
Properties=species:S:1:pos:R:3 #=T CELL(abcABC):=T 1.889726e+02=T 90.00000=T Traj:=T positionsangstrom=T Step:=T 0=T Bead:=T pbc="F F F"
C      -45.91620000     -34.33560000     -68.92760000
C      -46.95300000     -34.31450000     -69.88110000
C      -47.45540000     -33.05200000     -70.31640000
C      -46.80090000     -31.85060000     -70.07430000
C      -45.66490000     -31.84770000     -69.21320000
C      -45.31310000     -33.07820000     -68.60120000
H      -45.55690000     -35.21850000     -68.37460000
H      -48.32320000     -33.00500000     -70.98910000
H      -45.17030000     -30.94190000     -69.00740000
H      -44.52520000     -33.06420000     -67.81150000
C      -47.35090000     -30.51920000     -70.64790000
H      -46.85670000     -29.62250000     -69.96270000
H      -48.39140000     -30.59160000     -70.65670000
C      -47.64770000     -35.62590000     -70.43820000
H      -47.04810000     -36.45730000     -70.15200000
H      -48.61390000     -35.73840000     -70.00600000
S      -46.85470000     -30.28120000     -72.44480000
S      -47.88650000     -35.73640000     -72.28310000
C      -46.53920000     -31.93120000     -73.27670000
H      -46.72800000     -32.76820000     -72.56060000
H      -47.22060000     -32.10150000     -74.13580000
C      -46.24840000     -36.36430000     -72.98160000
H      -46.59250000     -36.84020000     -73.87050000
H      -45.96940000     -37.19640000     -72.30810000
C      -45.13520000     -35.38430000     -73.28330000
H      -44.52100000     -35.60380000     -74.18590000
H      -45.58120000     -34.49330000     -73.62910000
C      -45.10220000     -31.93680000     -73.80090000
H      -44.93040000     -30.91910000     -74.07150000
H      -44.87840000     -32.66010000     -74.59930000
C      -44.13290000     -32.30950000     -72.57060000
C      -43.52940000     -31.35810000     -71.78130000
C      -43.83060000     -33.61260000     -71.95360000
H      -43.55780000     -30.33000000     -71.93490000
C      -42.89670000     -33.53260000     -70.91820000
C      -44.29100000     -34.96720000     -72.13410000
C      -43.67270000     -35.91790000     -71.32810000
S      -42.40380000     -31.88320000     -70.59060000
S      -42.58490000     -35.11120000     -70.14730000
H      -43.57030000     -36.96470000     -71.47130000
