40
Properties=species:S:1:pos:R:3 #=T CELL(abcABC):=T 1.889726e+02=T 90.00000=T Traj:=T positionsangstrom=T Step:=T 0=T Bead:=T pbc="F F F"
C      -45.95530000     -34.38460000     -68.94400000
C      -47.01390000     -34.36780000     -69.85640000
C      -47.42700000     -33.15610000     -70.38940000
C      -46.84150000     -31.86120000     -70.01760000
C      -45.68550000     -31.93830000     -69.19940000
C      -45.34850000     -33.19130000     -68.63030000
H      -45.61390000     -35.29700000     -68.48450000
H      -48.30890000     -33.12360000     -71.04470000
H      -45.07190000     -31.00690000     -68.98300000
H      -44.44470000     -33.13580000     -68.07700000
C      -47.41260000     -30.58390000     -70.66200000
H      -47.43030000     -29.77780000     -70.03160000
H      -48.46750000     -30.86310000     -70.92130000
C      -47.71960000     -35.63920000     -70.29560000
H      -47.21440000     -36.55940000     -69.96880000
H      -48.74900000     -35.74450000     -69.91420000
S      -46.54910000     -30.04330000     -72.16420000
S      -47.99010000     -35.83000000     -72.19920000
C      -46.57910000     -31.68100000     -73.15000000
H      -46.72210000     -32.57950000     -72.51950000
H      -47.40400000     -31.73210000     -73.91690000
C      -46.43760000     -36.41170000     -72.94370000
H      -46.81670000     -36.79830000     -73.87160000
H      -45.93260000     -37.20110000     -72.45610000
C      -45.45210000     -35.26730000     -73.24330000
H      -45.01740000     -35.68810000     -74.15160000
H      -45.91770000     -34.30400000     -73.57830000
C      -45.11620000     -31.86100000     -73.72380000
H      -44.80170000     -30.99570000     -74.24500000
H      -45.11830000     -32.58640000     -74.47480000
C      -44.16730000     -32.28480000     -72.53130000
C      -43.41340000     -31.35030000     -71.89490000
C      -43.95920000     -33.63900000     -71.99320000
H      -43.39940000     -30.30340000     -72.17670000
C      -42.94130000     -33.55980000     -71.06880000
C      -44.34610000     -34.99770000     -72.21360000
C      -43.63420000     -35.91660000     -71.41890000
S      -42.29070000     -32.00870000     -70.70660000
S      -42.46290000     -35.06920000     -70.36430000
H      -43.95670000     -36.92380000     -71.34750000
