40
Properties=species:S:1:pos:R:3 #=T CELL(abcABC):=T 1.889726e+02=T 90.00000=T Traj:=T positionsangstrom=T Step:=T 0=T Bead:=T pbc="F F F"
C      -42.76780000     -35.80390000     -71.31510000
C      -43.05360000     -35.44690000     -72.64750000
C      -44.31630000     -35.87040000     -73.11440000
C      -45.22030000     -36.55380000     -72.31020000
C      -44.76700000     -37.05060000     -71.06800000
C      -43.58530000     -36.71580000     -70.56770000
H      -41.90200000     -35.41830000     -70.83450000
H      -44.72240000     -35.77140000     -74.12290000
H      -45.57430000     -37.62480000     -70.51400000
H      -43.37980000     -37.02860000     -69.57360000
C      -46.54000000     -36.93220000     -72.87080000
H      -46.59170000     -37.98850000     -73.26080000
H      -46.66550000     -36.37470000     -73.80300000
C      -42.18490000     -34.50190000     -73.56540000
H      -41.22020000     -35.04360000     -73.86950000
H      -42.73720000     -34.34040000     -74.48280000
S      -47.95240000     -36.54940000     -71.74020000
S      -41.53520000     -32.89820000     -72.76600000
C      -47.41360000     -35.08330000     -70.70680000
H      -48.17280000     -34.88890000     -69.97150000
H      -46.45810000     -35.35380000     -70.19070000
C      -43.24140000     -32.19260000     -72.35470000
H      -43.84760000     -32.51540000     -73.20600000
H      -43.08120000     -31.08500000     -72.33440000
C      -43.74120000     -32.77290000     -71.00270000
H      -44.18910000     -33.76120000     -71.06040000
H      -42.85770000     -32.92570000     -70.35160000
C      -47.08180000     -33.80850000     -71.55640000
H      -47.63490000     -33.70790000     -72.45960000
H      -45.99890000     -33.87030000     -71.90860000
C      -47.23680000     -32.47810000     -70.89760000
C      -48.42840000     -31.79820000     -70.70690000
C      -46.16980000     -31.59670000     -70.55560000
H      -49.45980000     -32.20650000     -70.94450000
C      -46.57340000     -30.33070000     -70.11860000
C      -44.67140000     -31.74930000     -70.35510000
C      -44.16340000     -30.62490000     -69.71610000
S      -48.28560000     -30.13230000     -70.25900000
S      -45.34050000     -29.42190000     -69.38780000
H      -43.16400000     -30.50240000     -69.26330000
