40
Properties=species:S:1:pos:R:3 #=T CELL(abcABC):=T 1.889726e+02=T 90.00000=T Traj:=T positionsangstrom=T Step:=T 0=T Bead:=T pbc="F F F"
C      -45.76530000     -34.61910000     -69.30610000
C      -46.85490000     -34.50670000     -70.19730000
C      -47.53730000     -33.25520000     -70.23590000
C      -47.06360000     -32.06300000     -69.64340000
C      -45.93270000     -32.24120000     -68.85000000
C      -45.28220000     -33.45320000     -68.70030000
H      -45.26060000     -35.60670000     -69.24140000
H      -48.29940000     -33.37920000     -70.95950000
H      -45.48040000     -31.31230000     -68.33750000
H      -44.36820000     -33.49160000     -68.16440000
C      -47.57750000     -30.76120000     -70.03110000
H      -47.65490000     -30.07110000     -69.09780000
H      -48.43300000     -30.89230000     -70.57660000
C      -47.44390000     -35.78810000     -70.75120000
H      -46.74970000     -36.56460000     -70.66200000
H      -48.45680000     -35.89080000     -70.31550000
S      -46.35900000     -29.97410000     -71.24830000
S      -48.01150000     -35.82310000     -72.50820000
C      -46.36340000     -31.13760000     -72.67580000
H      -46.79500000     -32.10710000     -72.34160000
H      -47.02700000     -30.77070000     -73.51270000
C      -46.63520000     -35.76960000     -73.67090000
H      -47.10130000     -35.71330000     -74.65000000
H      -46.08920000     -36.72640000     -73.57130000
C      -45.71020000     -34.56660000     -73.65890000
H      -45.16640000     -34.51140000     -74.63150000
H      -46.36280000     -33.67930000     -73.70040000
C      -45.02910000     -31.39770000     -73.25010000
H      -44.61610000     -30.49480000     -73.65350000
H      -45.22320000     -31.92430000     -74.11810000
C      -44.05540000     -32.01530000     -72.22480000
C      -43.22900000     -31.24710000     -71.40380000
C      -43.82120000     -33.44180000     -72.14470000
H      -43.14020000     -30.20160000     -71.36170000
C      -42.89850000     -33.79340000     -71.14270000
C      -44.59700000     -34.62630000     -72.61530000
C      -44.07200000     -35.72510000     -72.08140000
S      -42.12600000     -32.40560000     -70.49060000
S      -42.63230000     -35.52200000     -70.99850000
H      -44.39740000     -36.73190000     -72.40860000
