40
Properties=species:S:1:pos:R:3 #=T CELL(abcABC):=T 1.889726e+02=T 90.00000=T Traj:=T positionsangstrom=T Step:=T 0=T Bead:=T pbc="F F F"
C      -45.70500000     -34.69820000     -69.34420000
C      -46.74960000     -34.54880000     -70.23650000
C      -47.39130000     -33.29730000     -70.32980000
C      -47.02540000     -32.21550000     -69.52680000
C      -45.98650000     -32.42960000     -68.63930000
C      -45.30430000     -33.62080000     -68.57930000
H      -45.36350000     -35.70970000     -69.17110000
H      -48.21430000     -33.25200000     -71.06380000
H      -45.54400000     -31.57160000     -68.12000000
H      -44.58270000     -33.91760000     -67.88010000
C      -47.44570000     -30.73980000     -69.78810000
H      -47.30790000     -30.22510000     -68.82950000
H      -48.50330000     -30.63060000     -69.98250000
C      -47.30510000     -35.79970000     -71.05250000
H      -46.49360000     -36.57300000     -71.05520000
H      -47.98650000     -36.28840000     -70.30590000
S      -46.43730000     -29.90620000     -71.10850000
S      -48.13170000     -35.73890000     -72.60470000
C      -46.45600000     -31.00010000     -72.56150000
H      -46.87950000     -31.95520000     -72.24680000
H      -47.09020000     -30.48690000     -73.29210000
C      -46.62120000     -35.78890000     -73.70280000
H      -47.05270000     -35.87780000     -74.71750000
H      -46.04060000     -36.71380000     -73.54180000
C      -45.76750000     -34.50610000     -73.54690000
H      -45.52010000     -34.27450000     -74.59440000
H      -46.34050000     -33.74410000     -73.14520000
C      -45.05380000     -31.26480000     -73.14420000
H      -44.52620000     -30.29320000     -73.23760000
H      -45.09090000     -31.76520000     -74.17150000
C      -44.11770000     -32.07130000     -72.21530000
C      -43.25080000     -31.37420000     -71.33190000
C      -43.91740000     -33.44300000     -72.11840000
H      -43.22520000     -30.34500000     -71.19160000
C      -42.97320000     -33.77260000     -71.15940000
C      -44.48050000     -34.61610000     -72.79110000
C      -43.84100000     -35.72700000     -72.39980000
S      -42.20390000     -32.38230000     -70.48470000
S      -42.56010000     -35.49890000     -71.15850000
H      -44.04080000     -36.73220000     -72.61700000
