40
Properties=species:S:1:pos:R:3 #=T CELL(abcABC):=T 1.889726e+02=T 90.00000=T Traj:=T positionsangstrom=T Step:=T 0=T Bead:=T pbc="F F F"
C      -45.82880000     -34.92180000     -69.17590000
C      -46.76440000     -34.74270000     -70.20020000
C      -47.27810000     -33.44720000     -70.37710000
C      -46.79630000     -32.34110000     -69.64060000
C      -45.67610000     -32.57910000     -68.83700000
C      -45.23120000     -33.85470000     -68.50030000
H      -45.26310000     -35.82980000     -69.06780000
H      -48.21870000     -33.30550000     -70.97060000
H      -45.29140000     -31.76190000     -68.29750000
H      -44.35890000     -34.09960000     -67.83890000
C      -47.54260000     -30.98820000     -69.83680000
H      -47.76100000     -30.51510000     -68.93250000
H      -48.57420000     -31.12350000     -70.43290000
C      -47.34490000     -35.95310000     -70.84110000
H      -46.65800000     -36.82640000     -71.03630000
H      -48.08210000     -36.37450000     -70.21500000
S      -46.47880000     -29.79760000     -70.83600000
S      -48.11950000     -35.47090000     -72.58760000
C      -46.48730000     -30.74120000     -72.42440000
H      -47.22410000     -31.55970000     -72.38660000
H      -46.94430000     -30.01930000     -73.09890000
C      -46.72050000     -35.81760000     -73.79410000
H      -47.14170000     -35.90900000     -74.81970000
H      -46.14290000     -36.73250000     -73.61480000
C      -45.62200000     -34.60420000     -73.92090000
H      -45.00090000     -34.75070000     -74.86210000
H      -45.92020000     -33.54270000     -74.08950000
C      -45.15230000     -31.22250000     -72.94210000
H      -44.58970000     -30.33020000     -73.17880000
H      -45.28700000     -31.78840000     -73.89950000
C      -44.18280000     -31.96600000     -72.09700000
C      -43.30320000     -31.26760000     -71.22540000
C      -43.96710000     -33.38900000     -72.14060000
H      -43.36110000     -30.18810000     -71.08390000
C      -42.87170000     -33.73320000     -71.32700000
C      -44.56040000     -34.56510000     -72.84480000
C      -43.96740000     -35.71710000     -72.39600000
S      -42.20010000     -32.43890000     -70.47590000
S      -42.56590000     -35.43520000     -71.39700000
H      -44.11780000     -36.73950000     -72.60200000
