40
Properties=species:S:1:pos:R:3 #=T CELL(abcABC):=T 1.889726e+02=T 90.00000=T Traj:=T positionsangstrom=T Step:=T 0=T Bead:=T pbc="F F F"
C      -45.62130000     -35.01610000     -69.38810000
C      -46.81530000     -34.85340000     -70.12210000
C      -47.45540000     -33.54980000     -70.10640000
C      -46.81650000     -32.48410000     -69.48160000
C      -45.65900000     -32.69680000     -68.75400000
C      -45.15200000     -33.97530000     -68.61460000
H      -45.23640000     -36.01060000     -69.11680000
H      -48.24400000     -33.23220000     -70.82270000
H      -45.17970000     -31.93160000     -68.19430000
H      -44.29890000     -34.18120000     -67.89580000
C      -47.46950000     -31.06500000     -69.65270000
H      -47.65800000     -30.45230000     -68.80270000
H      -48.42510000     -31.18160000     -70.21900000
C      -47.39720000     -35.98170000     -70.85300000
H      -46.57590000     -36.68350000     -71.07720000
H      -48.30660000     -36.33040000     -70.32430000
S      -46.39270000     -29.87780000     -70.71900000
S      -48.02830000     -35.37810000     -72.54830000
C      -46.48620000     -30.57380000     -72.44180000
H      -47.23380000     -31.37000000     -72.48430000
H      -46.85000000     -29.84730000     -73.19050000
C      -46.63060000     -35.57810000     -73.80610000
H      -47.23240000     -35.72250000     -74.70210000
H      -46.03010000     -36.47000000     -73.69150000
C      -45.68270000     -34.28890000     -73.81790000
H      -45.45300000     -34.18500000     -74.83250000
H      -46.23290000     -33.38970000     -73.42600000
C      -45.09500000     -31.08690000     -72.96320000
H      -44.54900000     -30.17220000     -73.29530000
H      -45.35400000     -31.62540000     -73.86930000
C      -44.23480000     -31.96330000     -72.14470000
C      -43.33950000     -31.32670000     -71.28830000
C      -44.00140000     -33.38750000     -72.26530000
H      -43.30840000     -30.20170000     -71.20350000
C      -42.95600000     -33.75920000     -71.41990000
C      -44.55480000     -34.50090000     -72.95800000
C      -43.90810000     -35.68310000     -72.69070000
S      -42.30560000     -32.46030000     -70.48820000
S      -42.63650000     -35.51140000     -71.45210000
H      -44.07060000     -36.66970000     -73.16790000
