40
Properties=species:S:1:pos:R:3 #=T CELL(abcABC):=T 1.889726e+02=T 90.00000=T Traj:=T positionsangstrom=T Step:=T 0=T Bead:=T pbc="F F F"
C      -45.36380000     -34.84430000     -67.98530000
C      -44.25400000     -34.01140000     -68.02960000
C      -44.50070000     -32.63300000     -68.00680000
C      -45.82930000     -32.12470000     -68.02590000
C      -46.84130000     -32.99250000     -67.86230000
C      -46.63730000     -34.38220000     -67.80740000
H      -45.23530000     -35.92430000     -68.07010000
H      -43.68360000     -31.88110000     -67.90520000
H      -47.91550000     -32.58090000     -67.86960000
H      -47.44530000     -35.01720000     -67.79390000
C      -46.01710000     -30.67120000     -68.29560000
H      -45.12240000     -30.16410000     -68.55010000
H      -46.43500000     -29.95740000     -67.50300000
C      -42.89910000     -34.53890000     -68.24990000
H      -42.25120000     -33.61500000     -68.32430000
H      -42.50170000     -34.98910000     -67.35030000
S      -47.23950000     -30.24100000     -69.66340000
S      -42.45530000     -35.54110000     -69.69710000
C      -46.91010000     -31.57970000     -70.94970000
H      -47.20020000     -32.52840000     -70.53020000
H      -47.66370000     -31.43850000     -71.74360000
C      -43.22420000     -34.72600000     -71.19290000
H      -42.52000000     -34.91240000     -72.03890000
H      -43.30200000     -33.67640000     -70.95360000
C      -44.59980000     -35.30980000     -71.49690000
H      -44.46270000     -36.36690000     -71.39500000
H      -45.30210000     -35.04970000     -70.61960000
C      -45.49430000     -31.61820000     -71.55670000
H      -44.88400000     -32.32760000     -70.85460000
H      -45.04110000     -30.63030000     -71.57960000
C      -45.62530000     -32.27870000     -72.95670000
C      -46.00710000     -31.48940000     -73.98380000
C      -45.52530000     -33.65520000     -73.38860000
H      -46.02930000     -30.39040000     -73.94320000
C      -45.77810000     -33.81750000     -74.79280000
C      -45.11040000     -34.95300000     -72.87070000
C      -45.15940000     -35.98200000     -73.83260000
S      -46.09070000     -32.24040000     -75.60760000
S      -45.46400000     -35.30240000     -75.46790000
H      -44.91550000     -37.04660000     -73.80200000
