40
Properties=species:S:1:pos:R:3 #=T CELL(abcABC):=T 1.889726e+02=T 90.00000=T Traj:=T positionsangstrom=T Step:=T 0=T Bead:=T pbc="F F F"
C      -47.44970000     -35.99360000     -73.98840000
C      -47.42180000     -35.15290000     -72.87730000
C      -46.30410000     -35.07820000     -72.05110000
C      -45.14250000     -35.82140000     -72.32390000
C      -45.15990000     -36.59200000     -73.48970000
C      -46.29250000     -36.69210000     -74.31470000
H      -48.33390000     -36.06270000     -74.66160000
H      -46.46390000     -34.47090000     -71.17440000
H      -44.22800000     -37.11830000     -73.75930000
H      -46.33690000     -37.36900000     -75.15650000
C      -43.88160000     -35.63760000     -71.38660000
H      -43.50590000     -36.59910000     -71.02980000
H      -44.22340000     -35.00810000     -70.61020000
C      -48.64940000     -34.41670000     -72.49860000
H      -49.29140000     -34.48130000     -73.35660000
H      -49.18660000     -34.81960000     -71.66930000
S      -42.56830000     -34.69310000     -72.35540000
S      -48.35620000     -32.59610000     -71.99500000
C      -43.34350000     -33.19900000     -72.97270000
H      -43.25590000     -33.18970000     -74.08040000
H      -44.42740000     -33.27020000     -72.82340000
C      -46.91470000     -31.85440000     -72.89300000
H      -47.33020000     -31.49220000     -73.83440000
H      -46.28080000     -32.65410000     -73.03060000
C      -46.35170000     -30.76950000     -71.99640000
H      -45.57420000     -30.31000000     -72.61350000
H      -47.14680000     -30.08790000     -71.81000000
C      -42.92520000     -31.89100000     -72.29560000
H      -43.36410000     -31.00990000     -72.84590000
H      -41.80030000     -31.75270000     -72.34090000
C      -43.28780000     -32.05530000     -70.81970000
C      -42.41800000     -32.56440000     -69.88760000
C      -44.61870000     -31.85090000     -70.22700000
H      -41.43560000     -32.97080000     -70.11500000
C      -44.66440000     -32.25730000     -68.91210000
C      -45.91650000     -31.24520000     -70.62380000
C      -46.79780000     -31.20850000     -69.62070000
S      -43.13880000     -32.84700000     -68.36760000
S      -46.27110000     -32.02960000     -68.14100000
H      -47.82500000     -30.86050000     -69.69490000
