40
Properties=species:S:1:pos:R:3 #=T CELL(abcABC):=T 1.889726e+02=T 90.00000=T Traj:=T positionsangstrom=T Step:=T 0=T Bead:=T pbc="F F F"
C      -44.69910000     -34.76340000     -74.59720000
C      -43.54030000     -34.55370000     -73.80820000
C      -43.26690000     -35.37010000     -72.68740000
C      -44.15480000     -36.39630000     -72.38460000
C      -45.27560000     -36.64070000     -73.21540000
C      -45.50230000     -35.83910000     -74.29540000
H      -44.85370000     -34.22190000     -75.56860000
H      -42.38880000     -35.30700000     -72.04410000
H      -45.99880000     -37.45340000     -72.97210000
H      -46.33890000     -36.03500000     -74.90780000
C      -43.85340000     -37.28970000     -71.21070000
H      -42.94010000     -37.84460000     -71.32920000
H      -44.77300000     -37.89980000     -71.08360000
C      -42.75660000     -33.30450000     -74.10540000
H      -41.76140000     -33.53670000     -74.47280000
H      -43.27040000     -32.77100000     -74.94380000
S      -43.69660000     -36.32780000     -69.61390000
S      -42.38420000     -32.14940000     -72.67340000
C      -45.14510000     -35.21250000     -69.37670000
H      -45.99920000     -35.65400000     -69.81220000
H      -45.29200000     -35.11720000     -68.23850000
C      -43.99160000     -31.31750000     -72.30210000
H      -43.92670000     -30.29540000     -72.56680000
H      -43.95090000     -31.40680000     -71.25410000
C      -45.31840000     -32.04820000     -72.76580000
H      -45.64320000     -31.58130000     -73.71160000
H      -45.29300000     -33.09500000     -72.83340000
C      -44.84730000     -33.83340000     -69.92500000
H      -44.83680000     -33.87970000     -71.06450000
H      -43.82060000     -33.53530000     -69.49970000
C      -45.98750000     -32.91170000     -69.49370000
C      -46.35050000     -32.64910000     -68.22810000
C      -46.71580000     -32.06600000     -70.41500000
H      -45.94530000     -33.14390000     -67.35440000
C      -47.72870000     -31.38100000     -69.81730000
C      -46.48440000     -31.66210000     -71.79300000
C      -47.48030000     -30.79480000     -72.17690000
S      -47.82780000     -31.70800000     -68.12940000
S      -48.57480000     -30.27280000     -70.90450000
H      -47.53610000     -30.35090000     -73.16570000
