40
Properties=species:S:1:pos:R:3 #=T CELL(abcABC):=T 1.889726e+02=T 90.00000=T Traj:=T positionsangstrom=T Step:=T 0=T Bead:=T pbc="F F F"
C      -47.52380000     -36.03690000     -73.96810000
C      -47.55810000     -35.11220000     -72.90940000
C      -46.41740000     -35.09990000     -72.09370000
C      -45.25830000     -35.81190000     -72.32480000
C      -45.23940000     -36.71800000     -73.41580000
C      -46.33370000     -36.77360000     -74.25270000
H      -48.35860000     -36.23760000     -74.56200000
H      -46.52450000     -34.47020000     -71.16920000
H      -44.39240000     -37.34500000     -73.66250000
H      -46.40760000     -37.29890000     -75.17590000
C      -44.05030000     -35.59190000     -71.45280000
H      -43.54510000     -36.52350000     -71.23630000
H      -44.14790000     -35.18500000     -70.42100000
C      -48.71550000     -34.19170000     -72.67160000
H      -49.39510000     -34.24620000     -73.59950000
H      -49.34330000     -34.66320000     -71.93720000
S      -42.64990000     -34.80570000     -72.37260000
S      -48.44750000     -32.58020000     -71.93060000
C      -43.49620000     -33.23410000     -72.97670000
H      -43.32740000     -33.16750000     -74.02680000
H      -44.55330000     -33.29290000     -72.67520000
C      -46.97170000     -32.04310000     -72.90140000
H      -47.27470000     -31.64140000     -73.84290000
H      -46.38360000     -32.97030000     -73.15160000
C      -46.02770000     -31.03250000     -72.23840000
H      -45.19450000     -30.72560000     -72.85060000
H      -46.56160000     -30.03960000     -72.20810000
C      -42.82880000     -32.07230000     -72.24640000
H      -43.06850000     -31.18390000     -72.75900000
H      -41.72120000     -32.16610000     -72.41370000
C      -43.15770000     -32.06410000     -70.76120000
C      -42.34120000     -32.65750000     -69.78570000
C      -44.43970000     -31.76810000     -70.21280000
H      -41.29760000     -33.00070000     -69.89570000
C      -44.57510000     -32.03800000     -68.88250000
C      -45.72070000     -31.29380000     -70.72230000
C      -46.66870000     -31.22120000     -69.75510000
S      -43.20170000     -32.84520000     -68.23290000
S      -46.14220000     -31.70910000     -68.14760000
H      -47.68860000     -30.82340000     -69.91490000
