40
Properties=species:S:1:pos:R:3 #=T CELL(abcABC):=T 1.889726e+02=T 90.00000=T Traj:=T positionsangstrom=T Step:=T 0=T Bead:=T pbc="F F F"
C      -47.59590000     -36.01770000     -73.98590000
C      -47.65190000     -35.05540000     -72.90570000
C      -46.55880000     -35.08270000     -71.96260000
C      -45.43530000     -35.79630000     -72.31100000
C      -45.46190000     -36.75550000     -73.27390000
C      -46.48490000     -36.86550000     -74.15360000
H      -48.34810000     -35.98330000     -74.67250000
H      -46.52070000     -34.24480000     -71.23620000
H      -44.65140000     -37.40340000     -73.40590000
H      -46.47740000     -37.60960000     -74.94420000
C      -44.14010000     -35.60940000     -71.54640000
H      -43.91680000     -36.54600000     -71.03810000
H      -44.32750000     -34.82700000     -70.80850000
C      -48.89160000     -34.23670000     -72.72850000
H      -49.39640000     -34.01980000     -73.62540000
H      -49.57090000     -34.75600000     -72.00740000
S      -42.70380000     -35.09890000     -72.56850000
S      -48.42130000     -32.56110000     -71.92290000
C      -43.03740000     -33.37550000     -73.10990000
H      -42.47020000     -33.18180000     -74.01700000
H      -44.11160000     -33.19830000     -73.40340000
C      -47.06190000     -31.93590000     -72.95240000
H      -47.41030000     -31.53530000     -73.93100000
H      -46.42720000     -32.82500000     -73.23180000
C      -46.08890000     -30.93960000     -72.23410000
H      -45.28510000     -30.81430000     -72.93480000
H      -46.66070000     -30.03660000     -72.16110000
C      -42.60970000     -32.24810000     -72.12360000
H      -42.93390000     -31.27410000     -72.61700000
H      -41.49970000     -32.18440000     -72.05250000
C      -43.13680000     -32.26230000     -70.73480000
C      -42.34630000     -32.76850000     -69.67900000
C      -44.44650000     -31.89560000     -70.26660000
H      -41.32490000     -33.16210000     -69.76900000
C      -44.58620000     -32.09690000     -68.83900000
C      -45.67820000     -31.29080000     -70.78200000
C      -46.55790000     -31.03840000     -69.78840000
S      -43.10540000     -32.65180000     -68.09520000
S      -46.05390000     -31.46180000     -68.15970000
H      -47.52750000     -30.59260000     -69.96970000
