40
Properties=species:S:1:pos:R:3 #=T CELL(abcABC):=T 1.889726e+02=T 90.00000=T Traj:=T positionsangstrom=T Step:=T 0=T Bead:=T pbc="F F F"
C      -48.38950000     -35.50650000     -73.39870000
C      -48.06090000     -34.66680000     -72.38530000
C      -46.89030000     -34.79420000     -71.63750000
C      -46.10520000     -35.98150000     -71.74350000
C      -46.50250000     -36.91690000     -72.73020000
C      -47.63970000     -36.65000000     -73.55000000
H      -49.29650000     -35.39080000     -74.00530000
H      -46.54860000     -34.12610000     -70.86780000
H      -45.96200000     -37.82570000     -72.92970000
H      -47.75990000     -37.45450000     -74.24520000
C      -44.89810000     -36.18250000     -70.93290000
H      -44.96340000     -37.11250000     -70.41250000
H      -44.94800000     -35.28320000     -70.15080000
C      -48.84300000     -33.34680000     -72.23660000
H      -49.48610000     -33.02420000     -73.09480000
H      -49.66130000     -33.40540000     -71.51650000
S      -43.27960000     -36.09480000     -71.82020000
S      -47.81620000     -31.89820000     -71.75170000
C      -43.62360000     -34.75100000     -73.04290000
H      -43.10380000     -35.07060000     -73.92880000
H      -44.65080000     -34.61940000     -73.35540000
C      -46.62650000     -31.57040000     -73.19530000
H      -47.13130000     -31.01010000     -74.06380000
H      -46.37860000     -32.59410000     -73.52070000
C      -45.36070000     -30.73140000     -72.72580000
H      -44.50470000     -30.94300000     -73.41570000
H      -45.66100000     -29.65910000     -72.82430000
C      -43.00650000     -33.31600000     -72.66520000
H      -43.42670000     -32.58720000     -73.38390000
H      -41.90910000     -33.24330000     -72.89950000
C      -43.13630000     -32.83500000     -71.25150000
C      -42.42830000     -33.47440000     -70.25230000
C      -44.16530000     -31.92340000     -70.70870000
H      -41.55790000     -34.13610000     -70.28930000
C      -44.14920000     -31.87680000     -69.31660000
C      -45.02070000     -30.90880000     -71.25340000
C      -45.57230000     -30.11560000     -70.26170000
S      -42.89530000     -32.92610000     -68.61990000
S      -45.16040000     -30.66660000     -68.60690000
H      -46.38870000     -29.39460000     -70.31830000
