40
Properties=species:S:1:pos:R:3 #=T CELL(abcABC):=T 1.889726e+02=T 90.00000=T Traj:=T positionsangstrom=T Step:=T 0=T Bead:=T pbc="F F F"
C      -44.70400000     -34.83020000     -74.64510000
C      -43.53990000     -34.50590000     -73.89600000
C      -43.23520000     -35.33290000     -72.73740000
C      -44.16730000     -36.29690000     -72.27490000
C      -45.33050000     -36.53710000     -73.07430000
C      -45.56060000     -35.83460000     -74.22770000
H      -44.96420000     -34.22270000     -75.53870000
H      -42.37170000     -35.02640000     -72.12390000
H      -46.07920000     -37.36250000     -72.81530000
H      -46.48950000     -36.03160000     -74.69470000
C      -43.87870000     -37.19520000     -71.07170000
H      -42.98660000     -37.82950000     -71.18780000
H      -44.59140000     -37.97810000     -70.88070000
C      -42.70790000     -33.30860000     -74.23610000
H      -41.69750000     -33.64230000     -74.50050000
H      -43.04740000     -32.81770000     -75.15040000
S      -43.60890000     -36.34590000     -69.44470000
S      -42.45440000     -32.19200000     -72.78980000
C      -45.02360000     -35.21500000     -69.36530000
H      -45.75800000     -35.79840000     -69.96550000
H      -45.47660000     -35.16190000     -68.29210000
C      -43.97360000     -31.36150000     -72.29110000
H      -44.08660000     -30.31350000     -72.78780000
H      -43.91390000     -31.16620000     -71.21230000
C      -45.29370000     -32.08740000     -72.69120000
H      -45.49350000     -31.79450000     -73.73800000
H      -45.16170000     -33.12660000     -72.83860000
C      -44.78570000     -33.80850000     -69.83650000
H      -44.37770000     -33.68580000     -70.79730000
H      -44.00890000     -33.40880000     -69.21130000
C      -45.98190000     -32.86340000     -69.55100000
C      -46.52990000     -32.87270000     -68.29800000
C      -46.55340000     -31.89370000     -70.43030000
H      -46.10160000     -33.43890000     -67.38000000
C      -47.59230000     -31.18670000     -69.78860000
C      -46.39430000     -31.56340000     -71.79900000
C      -47.46060000     -30.80960000     -72.19360000
S      -47.93840000     -31.76580000     -68.22490000
S      -48.63810000     -30.34990000     -70.94770000
H      -47.57880000     -30.42480000     -73.24270000
