40
Properties=species:S:1:pos:R:3 #=T CELL(abcABC):=T 1.889726e+02=T 90.00000=T Traj:=T positionsangstrom=T Step:=T 0=T Bead:=T pbc="F F F"
C      -48.53400000     -35.42150000     -73.32170000
C      -48.12890000     -34.55750000     -72.34650000
C      -47.05520000     -34.90670000     -71.52120000
C      -46.26550000     -36.04960000     -71.73600000
C      -46.78370000     -36.97540000     -72.76140000
C      -47.85720000     -36.60280000     -73.56250000
H      -49.30970000     -35.06910000     -73.97000000
H      -46.76540000     -34.13390000     -70.81200000
H      -46.17420000     -37.86550000     -73.01420000
H      -48.14450000     -37.23670000     -74.43880000
C      -44.98680000     -36.32400000     -71.00650000
H      -44.98280000     -37.35960000     -70.77720000
H      -44.95640000     -35.89640000     -70.02390000
C      -48.89350000     -33.18240000     -72.21360000
H      -49.40390000     -32.84040000     -73.11380000
H      -49.57370000     -33.28940000     -71.42030000
S      -43.48520000     -36.07430000     -71.94020000
S      -47.77610000     -31.74720000     -71.78620000
C      -43.85000000     -34.64230000     -72.98830000
H      -43.59700000     -34.88680000     -74.01790000
H      -44.95290000     -34.44010000     -72.98400000
C      -46.44090000     -31.97370000     -72.99630000
H      -46.68880000     -31.97290000     -74.01250000
H      -46.03340000     -32.91400000     -72.81460000
C      -45.33640000     -30.94690000     -72.78930000
H      -44.50560000     -31.12860000     -73.46410000
H      -45.68150000     -29.89690000     -72.94040000
C      -42.91270000     -33.47170000     -72.59960000
H      -43.16180000     -32.69270000     -73.28990000
H      -41.92150000     -33.83410000     -72.76210000
C      -43.09920000     -32.93270000     -71.19780000
C      -42.37680000     -33.53490000     -70.12990000
C      -44.04640000     -31.94450000     -70.72820000
H      -41.57130000     -34.24550000     -70.21710000
C      -43.89820000     -31.73650000     -69.31730000
C      -44.92560000     -31.01450000     -71.31600000
C      -45.55360000     -30.22020000     -70.31680000
S      -42.73970000     -32.83820000     -68.55360000
S      -44.94720000     -30.52520000     -68.70270000
H      -46.11530000     -29.32160000     -70.53090000
