40
Properties=species:S:1:pos:R:3 #=T CELL(abcABC):=T 1.889726e+02=T 90.00000=T Traj:=T positionsangstrom=T Step:=T 0=T Bead:=T pbc="F F F"
C      -49.14990000     -35.15180000     -72.95520000
C      -48.51640000     -34.18850000     -72.12530000
C      -47.43320000     -34.66800000     -71.37110000
C      -46.84130000     -35.89200000     -71.53370000
C      -47.40610000     -36.72890000     -72.49390000
C      -48.60850000     -36.41360000     -73.16900000
H      -49.99500000     -34.84490000     -73.59170000
H      -46.88650000     -34.03380000     -70.64620000
H      -46.98210000     -37.66390000     -72.70060000
H      -49.11290000     -37.08820000     -73.88410000
C      -45.66150000     -36.36620000     -70.74700000
H      -45.83180000     -37.34430000     -70.40310000
H      -45.37120000     -35.54970000     -69.95500000
C      -48.98430000     -32.77680000     -71.98110000
H      -49.73800000     -32.63030000     -72.72690000
H      -49.51050000     -32.89960000     -71.00660000
S      -44.22580000     -36.52480000     -71.88420000
S      -47.70620000     -31.49860000     -71.85120000
C      -44.10800000     -34.90670000     -72.73700000
H      -44.14000000     -35.12330000     -73.82640000
H      -45.03620000     -34.40900000     -72.43410000
C      -46.45460000     -31.95550000     -73.10930000
H      -46.83520000     -31.56110000     -74.07240000
H      -46.19950000     -33.03280000     -73.23340000
C      -45.14740000     -31.11850000     -72.87930000
H      -44.40300000     -31.49040000     -73.63970000
H      -45.25250000     -30.01080000     -73.17080000
C      -42.91800000     -34.08570000     -72.54140000
H      -42.92880000     -33.30570000     -73.36940000
H      -41.98270000     -34.63340000     -72.67100000
C      -42.84090000     -33.30780000     -71.26020000
C      -42.15190000     -33.81140000     -70.17280000
C      -43.57980000     -32.09220000     -70.91950000
H      -41.40000000     -34.57460000     -70.19930000
C      -43.27900000     -31.70160000     -69.58160000
C      -44.52150000     -31.15670000     -71.47480000
C      -44.93660000     -30.18760000     -70.58930000
S      -42.18870000     -32.77660000     -68.78510000
S      -44.11690000     -30.34080000     -68.98370000
H      -45.54730000     -29.37380000     -70.87170000
