40
Properties=species:S:1:pos:R:3 #=T CELL(abcABC):=T 1.889726e+02=T 90.00000=T Traj:=T positionsangstrom=T Step:=T 0=T Bead:=T pbc="F F F"
C      -49.18460000     -34.77550000     -72.88020000
C      -48.62820000     -33.92420000     -71.86370000
C      -47.53150000     -34.44630000     -71.13370000
C      -47.00370000     -35.72610000     -71.29940000
C      -47.65780000     -36.54870000     -72.21810000
C      -48.70880000     -36.06700000     -73.03070000
H      -50.00030000     -34.47050000     -73.53740000
H      -47.17860000     -33.68970000     -70.53210000
H      -47.21160000     -37.45240000     -72.59920000
H      -49.14370000     -36.71050000     -73.81960000
C      -45.93890000     -36.22910000     -70.35580000
H      -46.29150000     -37.26500000     -70.02120000
H      -45.64770000     -35.56520000     -69.54710000
C      -48.95170000     -32.48630000     -71.77430000
H      -49.69840000     -32.38460000     -72.56520000
H      -49.36170000     -32.16450000     -70.79400000
S      -44.24970000     -36.62630000     -71.28300000
S      -47.46730000     -31.24970000     -71.87240000
C      -44.41690000     -35.30270000     -72.58950000
H      -44.55270000     -35.91040000     -73.49520000
H      -45.35200000     -34.80140000     -72.45130000
C      -46.37820000     -31.88410000     -73.21740000
H      -46.71060000     -31.86820000     -74.21150000
H      -46.25390000     -32.89060000     -72.94460000
C      -45.04100000     -31.19430000     -73.12370000
H      -44.33370000     -31.51240000     -73.92890000
H      -45.29880000     -30.08860000     -73.36370000
C      -43.27090000     -34.26410000     -72.77570000
H      -43.62950000     -33.65350000     -73.64370000
H      -42.32760000     -34.70960000     -72.97890000
C      -43.06110000     -33.54080000     -71.45100000
C      -42.32560000     -34.15880000     -70.48080000
C      -43.54330000     -32.20710000     -71.12780000
H      -41.96030000     -35.14400000     -70.58500000
C      -43.29580000     -31.99070000     -69.80150000
C      -44.34040000     -31.17350000     -71.72180000
C      -44.39220000     -30.05740000     -70.92310000
S      -42.26160000     -33.16870000     -69.01080000
S      -43.74840000     -30.29970000     -69.30270000
H      -44.95290000     -29.16670000     -70.99450000
