40
Properties=species:S:1:pos:R:3 #=T CELL(abcABC):=T 1.889726e+02=T 90.00000=T Traj:=T positionsangstrom=T Step:=T 0=T Bead:=T pbc="F F F"
C      -43.92990000     -35.95370000     -68.99320000
C      -45.04130000     -35.23180000     -68.55970000
C      -46.33100000     -35.54970000     -69.04830000
C      -46.52400000     -36.58820000     -69.94940000
C      -45.41350000     -37.19850000     -70.50970000
C      -44.12550000     -36.91570000     -70.00200000
H      -42.96190000     -35.83640000     -68.45960000
H      -47.12210000     -34.76420000     -69.04090000
H      -45.53560000     -37.88350000     -71.32160000
H      -43.26370000     -37.48630000     -70.42480000
C      -47.79950000     -36.85930000     -70.73340000
H      -48.38720000     -37.49850000     -70.07340000
H      -47.48860000     -37.37140000     -71.59270000
C      -44.90550000     -34.01860000     -67.74700000
H      -45.77590000     -33.34050000     -67.70650000
H      -44.87750000     -34.35930000     -66.65290000
S      -48.70610000     -35.23490000     -70.97850000
S      -43.32140000     -33.09270000     -67.97640000
C      -47.87880000     -34.40870000     -72.45800000
H      -47.83940000     -35.07930000     -73.38820000
H      -48.63610000     -33.68910000     -72.79350000
C      -43.67380000     -31.99680000     -69.49900000
H      -42.71130000     -31.38350000     -69.52540000
H      -44.60260000     -31.40010000     -69.31990000
C      -43.70770000     -32.78970000     -70.77740000
H      -42.87180000     -33.44810000     -70.84560000
H      -44.50430000     -33.41940000     -70.78390000
C      -46.56630000     -33.68490000     -72.04640000
H      -45.76410000     -34.44010000     -71.85010000
H      -46.78780000     -33.29090000     -71.04310000
C      -46.08570000     -32.59840000     -72.97550000
C      -46.67290000     -32.31100000     -74.18940000
C      -44.87620000     -31.80090000     -72.80340000
H      -47.56920000     -32.79620000     -74.62410000
C      -44.77290000     -30.84320000     -73.81750000
C      -43.80300000     -31.80110000     -71.85560000
C      -42.91980000     -30.73330000     -72.10510000
S      -45.90980000     -31.00920000     -75.09180000
S      -43.37550000     -29.75700000     -73.52950000
H      -42.13030000     -30.31840000     -71.50100000
