40
Properties=species:S:1:pos:R:3 #=T CELL(abcABC):=T 1.889726e+02=T 90.00000=T Traj:=T positionsangstrom=T Step:=T 0=T Bead:=T pbc="F F F"
C      -49.25140000     -34.52580000     -72.67920000
C      -48.52090000     -33.68460000     -71.82700000
C      -47.52110000     -34.14380000     -71.00190000
C      -47.25200000     -35.50180000     -70.90380000
C      -47.96780000     -36.35480000     -71.73220000
C      -48.96010000     -35.87640000     -72.57520000
H      -49.91250000     -34.17770000     -73.46070000
H      -46.92870000     -33.48770000     -70.41210000
H      -47.81460000     -37.45650000     -71.83280000
H      -49.47550000     -36.67460000     -73.16090000
C      -46.05550000     -36.03280000     -70.16930000
H      -46.21510000     -36.96270000     -69.63400000
H      -45.55390000     -35.27260000     -69.50620000
C      -48.77140000     -32.13960000     -71.91800000
H      -49.53430000     -31.85520000     -72.60090000
H      -49.22790000     -32.02640000     -70.95580000
S      -44.77420000     -36.69140000     -71.42390000
S      -47.24780000     -31.08500000     -72.00170000
C      -44.62030000     -35.38010000     -72.66310000
H      -44.69300000     -35.82750000     -73.69420000
H      -45.47200000     -34.74020000     -72.65350000
C      -46.19800000     -31.83650000     -73.28340000
H      -46.63600000     -31.75620000     -74.27270000
H      -46.19170000     -32.93730000     -73.11180000
C      -44.75410000     -31.27420000     -73.24370000
H      -44.14220000     -31.76210000     -73.94200000
H      -44.85520000     -30.20450000     -73.49190000
C      -43.32500000     -34.56540000     -72.70570000
H      -43.37920000     -33.81370000     -73.53890000
H      -42.50600000     -35.25270000     -72.89200000
C      -43.13930000     -33.84540000     -71.37220000
C      -42.57000000     -34.45460000     -70.28400000
C      -43.49690000     -32.46610000     -71.13930000
H      -42.13160000     -35.44620000     -70.28170000
C      -43.09540000     -32.05830000     -69.86070000
C      -44.13600000     -31.35990000     -71.90760000
C      -44.10850000     -30.16740000     -71.18710000
S      -42.27500000     -33.29520000     -68.97730000
S      -43.42620000     -30.40570000     -69.58620000
H      -44.48910000     -29.24520000     -71.68770000
