40
Properties=species:S:1:pos:R:3 #=T CELL(abcABC):=T 1.889726e+02=T 90.00000=T Traj:=T positionsangstrom=T Step:=T 0=T Bead:=T pbc="F F F"
C      -49.55410000     -34.38610000     -72.38610000
C      -48.58020000     -33.52790000     -71.82330000
C      -47.47820000     -34.03830000     -71.16210000
C      -47.31670000     -35.42910000     -70.97540000
C      -48.25890000     -36.27670000     -71.60270000
C      -49.35340000     -35.78920000     -72.31870000
H      -50.36080000     -34.07890000     -73.00070000
H      -46.83820000     -33.30840000     -70.65660000
H      -48.15440000     -37.33390000     -71.59050000
H      -50.06070000     -36.42010000     -72.82700000
C      -46.04480000     -35.93050000     -70.23590000
H      -46.26810000     -36.75760000     -69.59550000
H      -45.68890000     -35.06120000     -69.65930000
C      -48.71490000     -31.99320000     -72.08120000
H      -49.25980000     -31.74140000     -73.05090000
H      -49.45650000     -31.57600000     -71.27650000
S      -44.76980000     -36.74540000     -71.29810000
S      -47.15020000     -31.04800000     -72.10170000
C      -44.50450000     -35.58610000     -72.75360000
H      -44.34550000     -36.21000000     -73.64190000
H      -45.45260000     -35.02980000     -72.84650000
C      -46.13820000     -32.15940000     -73.17840000
H      -46.64530000     -32.04050000     -74.12500000
H      -46.20660000     -33.21110000     -72.90970000
C      -44.69360000     -31.63890000     -73.26490000
H      -44.05930000     -32.50370000     -73.69310000
H      -44.57780000     -30.78620000     -73.91590000
C      -43.21450000     -34.68330000     -72.67600000
H      -43.02140000     -34.19220000     -73.65050000
H      -42.34270000     -35.38230000     -72.58340000
C      -43.10840000     -33.80970000     -71.41750000
C      -42.45980000     -34.36800000     -70.32660000
C      -43.45820000     -32.42380000     -71.18480000
H      -41.95940000     -35.24760000     -70.11120000
C      -42.98090000     -32.00610000     -69.95700000
C      -44.13990000     -31.45140000     -71.89520000
C      -44.13710000     -30.25000000     -71.17280000
S      -42.28380000     -33.28150000     -68.99330000
S      -43.36930000     -30.33120000     -69.62750000
H      -44.55710000     -29.32790000     -71.48430000
