40
Properties=species:S:1:pos:R:3 #=T CELL(abcABC):=T 1.889726e+02=T 90.00000=T Traj:=T positionsangstrom=T Step:=T 0=T Bead:=T pbc="F F F"
C      -49.50010000     -34.34750000     -72.17280000
C      -48.47710000     -33.40070000     -71.86740000
C      -47.39260000     -33.87390000     -71.13390000
C      -47.30670000     -35.21210000     -70.74280000
C      -48.34290000     -36.11730000     -71.05410000
C      -49.49040000     -35.65080000     -71.65240000
H      -50.42270000     -33.95790000     -72.61460000
H      -46.64500000     -33.10670000     -70.87140000
H      -48.23310000     -37.12670000     -70.68270000
H      -50.36830000     -36.32840000     -71.86050000
C      -46.12020000     -35.78450000     -69.94300000
H      -46.40340000     -36.51570000     -69.13720000
H      -45.44430000     -35.04080000     -69.56500000
C      -48.55960000     -31.98590000     -72.39970000
H      -49.22740000     -32.03580000     -73.29160000
H      -49.15650000     -31.37030000     -71.78970000
S      -45.05900000     -36.69010000     -71.18940000
S      -47.06180000     -31.01940000     -72.47900000
C      -44.60410000     -35.52140000     -72.60650000
H      -44.80780000     -35.99650000     -73.59350000
H      -45.33950000     -34.72450000     -72.58710000
C      -46.05370000     -32.11180000     -73.59180000
H      -46.29030000     -31.94400000     -74.62620000
H      -46.34260000     -33.13900000     -73.27750000
C      -44.52200000     -31.81490000     -73.42240000
H      -43.89610000     -32.59770000     -73.87540000
H      -44.31860000     -30.90500000     -74.00730000
C      -43.21630000     -34.98960000     -72.51330000
H      -42.97800000     -34.41220000     -73.47340000
H      -42.46400000     -35.76370000     -72.42240000
C      -42.97230000     -33.98910000     -71.36290000
C      -42.39850000     -34.39940000     -70.22100000
C      -43.37160000     -32.60370000     -71.24220000
H      -42.02290000     -35.37620000     -69.98260000
C      -43.03180000     -32.06290000     -69.97400000
C      -44.03310000     -31.64750000     -72.02640000
C      -44.16000000     -30.42870000     -71.43080000
S      -42.31130000     -33.24840000     -68.93760000
S      -43.36780000     -30.38370000     -69.84130000
H      -44.63170000     -29.60850000     -71.95260000
