40
Properties=species:S:1:pos:R:3 #=T CELL(abcABC):=T 1.889726e+02=T 90.00000=T Traj:=T positionsangstrom=T Step:=T 0=T Bead:=T pbc="F F F"
C      -49.43360000     -34.26410000     -72.10600000
C      -48.44580000     -33.32920000     -71.87580000
C      -47.40210000     -33.77730000     -71.01940000
C      -47.33270000     -35.11930000     -70.55030000
C      -48.45210000     -35.95230000     -70.62260000
C      -49.51240000     -35.46010000     -71.35550000
H      -50.14230000     -34.02170000     -72.84160000
H      -46.52890000     -33.14120000     -70.74930000
H      -48.47560000     -36.93950000     -70.18080000
H      -50.47590000     -36.05870000     -71.42550000
C      -46.06600000     -35.63640000     -69.96280000
H      -46.22030000     -36.26860000     -69.11150000
H      -45.33910000     -34.84180000     -69.78440000
C      -48.57670000     -31.97680000     -72.43050000
H      -49.15050000     -31.94850000     -73.39670000
H      -49.22640000     -31.41880000     -71.66180000
S      -45.15360000     -36.77980000     -71.12020000
S      -46.93290000     -30.96400000     -72.73900000
C      -44.75890000     -35.50760000     -72.44600000
H      -44.87960000     -36.06550000     -73.36630000
H      -45.48100000     -34.68510000     -72.21800000
C      -45.97990000     -32.11360000     -73.71950000
H      -46.37280000     -32.13690000     -74.78310000
H      -46.30560000     -33.07380000     -73.34650000
C      -44.40280000     -31.92350000     -73.60110000
H      -43.86050000     -32.76310000     -73.92700000
H      -44.11410000     -31.02330000     -74.24990000
C      -43.29380000     -35.00650000     -72.52990000
H      -43.18890000     -34.52570000     -73.47900000
H      -42.77630000     -35.92240000     -72.47810000
C      -43.00220000     -34.08640000     -71.34200000
C      -42.54000000     -34.54840000     -70.16180000
C      -43.34950000     -32.68340000     -71.29670000
H      -42.15360000     -35.59120000     -69.99810000
C      -43.05800000     -32.13850000     -70.02760000
C      -43.89520000     -31.69280000     -72.17800000
C      -43.95590000     -30.45620000     -71.53900000
S      -42.27000000     -33.24090000     -68.96810000
S      -43.47990000     -30.45850000     -69.86100000
H      -44.27560000     -29.49990000     -72.01130000
