40
Properties=species:S:1:pos:R:3 #=T CELL(abcABC):=T 1.889726e+02=T 90.00000=T Traj:=T positionsangstrom=T Step:=T 0=T Bead:=T pbc="F F F"
C      -46.71380000     -35.02900000     -68.51460000
C      -45.83650000     -34.14350000     -67.89940000
C      -44.47020000     -34.11300000     -68.22990000
C      -43.89160000     -34.99400000     -69.20650000
C      -44.84590000     -35.86170000     -69.76380000
C      -46.19250000     -35.99570000     -69.37920000
H      -47.74020000     -35.11360000     -68.06920000
H      -43.81200000     -33.35610000     -67.84350000
H      -44.60060000     -36.48730000     -70.54440000
H      -46.78770000     -36.75470000     -69.95850000
C      -42.41980000     -34.91220000     -69.60510000
H      -41.88020000     -35.35530000     -68.78300000
H      -42.11750000     -33.86300000     -69.42420000
C      -46.35290000     -32.97200000     -67.15860000
H      -47.43680000     -33.09620000     -67.01210000
H      -45.86310000     -32.95370000     -66.19590000
S      -41.94740000     -35.78350000     -71.17710000
S      -46.01590000     -31.36020000     -67.96700000
C      -43.15080000     -35.18130000     -72.47690000
H      -42.69100000     -35.36250000     -73.50410000
H      -44.13160000     -35.68380000     -72.42300000
C      -46.95670000     -31.65610000     -69.50700000
H      -47.22610000     -30.73220000     -69.89720000
H      -47.96880000     -32.04140000     -69.28120000
C      -46.25740000     -32.61020000     -70.58880000
H      -45.21200000     -32.62040000     -70.42030000
H      -46.55000000     -33.66730000     -70.43870000
C      -43.53470000     -33.73440000     -72.28460000
H      -42.72110000     -33.00170000     -72.08590000
H      -44.10040000     -33.75010000     -71.32940000
C      -44.42640000     -33.12510000     -73.38130000
C      -44.03230000     -33.17080000     -74.72160000
C      -45.71360000     -32.50660000     -73.18860000
H      -43.12340000     -33.60600000     -75.12300000
C      -46.36750000     -32.16270000     -74.37310000
C      -46.57590000     -32.24610000     -71.97290000
C      -47.80560000     -31.70650000     -72.36160000
S      -45.35460000     -32.57170000     -75.77290000
S      -47.99330000     -31.59060000     -74.16640000
H      -48.75480000     -31.49890000     -71.85630000
