40
Properties=species:S:1:pos:R:3 #=T CELL(abcABC):=T 1.889726e+02=T 90.00000=T Traj:=T positionsangstrom=T Step:=T 0=T Bead:=T pbc="F F F"
C      -49.75520000     -33.12730000     -71.42450000
C      -48.52280000     -32.70080000     -71.79040000
C      -47.38660000     -33.28300000     -71.14380000
C      -47.56200000     -34.28930000     -70.19970000
C      -48.82390000     -34.90920000     -70.03640000
C      -49.92240000     -34.23980000     -70.51460000
H      -50.63570000     -32.66070000     -71.79970000
H      -46.36440000     -32.89300000     -71.21080000
H      -48.86820000     -35.71930000     -69.34180000
H      -51.00440000     -34.55980000     -70.31120000
C      -46.39790000     -34.87150000     -69.48970000
H      -46.60330000     -35.03310000     -68.45600000
H      -45.57290000     -34.16410000     -69.53930000
C      -48.39560000     -31.77290000     -72.97320000
H      -48.91360000     -32.18910000     -73.85880000
H      -48.92900000     -30.88330000     -72.72460000
S      -45.82540000     -36.43500000     -70.24590000
S      -46.59550000     -31.22500000     -73.40990000
C      -45.44400000     -35.94420000     -71.98330000
H      -45.63020000     -36.84380000     -72.58080000
H      -46.09770000     -35.10190000     -72.26020000
C      -45.70460000     -32.65220000     -74.10920000
H      -45.90240000     -32.71980000     -75.19590000
H      -46.11810000     -33.52940000     -73.74220000
C      -44.21030000     -32.58300000     -73.85450000
H      -43.79440000     -33.50940000     -74.23190000
H      -43.71080000     -31.83380000     -74.47300000
C      -43.92300000     -35.59180000     -72.17250000
H      -43.65720000     -35.33330000     -73.17970000
H      -43.49440000     -36.57020000     -71.99390000
C      -43.37400000     -34.57790000     -71.20290000
C      -42.81620000     -34.96160000     -70.05220000
C      -43.24850000     -33.14470000     -71.39170000
H      -42.68400000     -35.94010000     -69.65930000
C      -42.58790000     -32.47140000     -70.35840000
C      -43.66810000     -32.23550000     -72.46150000
C      -43.41460000     -30.92320000     -72.10630000
S      -42.04870000     -33.55760000     -69.11060000
S      -42.65030000     -30.75980000     -70.53630000
H      -43.51820000     -30.04940000     -72.77430000
