40
Properties=species:S:1:pos:R:3 #=T CELL(abcABC):=T 1.889726e+02=T 90.00000=T Traj:=T positionsangstrom=T Step:=T 0=T Bead:=T pbc="F F F"
C      -49.67330000     -33.31490000     -71.58520000
C      -48.44240000     -32.71110000     -71.80890000
C      -47.40910000     -33.07290000     -70.97940000
C      -47.51130000     -34.06440000     -69.98270000
C      -48.79520000     -34.59520000     -69.69390000
C      -49.80800000     -34.28200000     -70.59160000
H      -50.48290000     -33.05880000     -72.34210000
H      -46.40480000     -32.59480000     -71.09000000
H      -48.96070000     -35.22630000     -68.78420000
H      -50.83800000     -34.74380000     -70.34660000
C      -46.28060000     -34.65300000     -69.43200000
H      -46.34620000     -34.86710000     -68.39120000
H      -45.44490000     -34.04140000     -69.62800000
C      -48.27510000     -31.48470000     -72.63540000
H      -49.01430000     -31.57500000     -73.46850000
H      -48.49390000     -30.58810000     -72.06470000
S      -45.85400000     -36.32990000     -70.16530000
S      -46.60020000     -31.07530000     -73.36750000
C      -45.34100000     -36.07880000     -71.92630000
H      -45.59890000     -37.01470000     -72.40050000
H      -45.85130000     -35.20640000     -72.32690000
C      -45.93830000     -32.74030000     -73.96390000
H      -46.34260000     -32.98540000     -74.94170000
H      -46.32500000     -33.54780000     -73.23270000
C      -44.35360000     -32.78980000     -73.99460000
H      -43.99140000     -33.76520000     -74.33870000
H      -43.98490000     -32.09070000     -74.78070000
C      -43.84680000     -35.79610000     -72.11310000
H      -43.71560000     -35.65730000     -73.18690000
H      -43.32880000     -36.70470000     -71.90840000
C      -43.30290000     -34.71200000     -71.26910000
C      -42.77190000     -35.06860000     -70.00260000
C      -43.27360000     -33.28650000     -71.51630000
H      -42.79230000     -36.03990000     -69.54420000
C      -42.75660000     -32.54490000     -70.43900000
C      -43.67400000     -32.43050000     -72.67830000
C      -43.41140000     -31.04690000     -72.36010000
S      -42.15750000     -33.58290000     -69.18520000
S      -42.61420000     -30.83150000     -70.74460000
H      -43.70130000     -30.16080000     -72.96050000
