40
Properties=species:S:1:pos:R:3 #=T CELL(abcABC):=T 1.889726e+02=T 90.00000=T Traj:=T positionsangstrom=T Step:=T 0=T Bead:=T pbc="F F F"
C      -49.59560000     -33.00680000     -71.38370000
C      -48.31270000     -32.50820000     -71.71220000
C      -47.20510000     -32.94020000     -70.93460000
C      -47.34770000     -34.02770000     -70.04850000
C      -48.68850000     -34.65120000     -69.90710000
C      -49.77190000     -34.13430000     -70.56450000
H      -50.44850000     -32.59760000     -71.93120000
H      -46.23900000     -32.57760000     -71.07560000
H      -48.66360000     -35.54190000     -69.26760000
H      -50.63180000     -34.76940000     -70.54360000
C      -46.21290000     -34.64890000     -69.27520000
H      -46.52510000     -34.70720000     -68.19420000
H      -45.26220000     -34.10260000     -69.27040000
C      -48.24440000     -31.50380000     -72.85890000
H      -48.84020000     -31.87680000     -73.66650000
H      -48.77540000     -30.60280000     -72.57820000
S      -45.84780000     -36.32930000     -69.99470000
S      -46.50140000     -31.11630000     -73.28220000
C      -45.55820000     -35.84900000     -71.74870000
H      -46.03160000     -36.51490000     -72.45270000
H      -46.04510000     -34.85020000     -71.96430000
C      -45.98120000     -32.82060000     -74.01370000
H      -46.41210000     -32.80660000     -74.96770000
H      -46.46810000     -33.57890000     -73.48860000
C      -44.47720000     -32.90680000     -73.93440000
H      -44.26090000     -33.92940000     -74.13630000
H      -44.05420000     -32.36820000     -74.82100000
C      -44.06330000     -35.82000000     -72.08790000
H      -43.86400000     -35.64610000     -73.16200000
H      -43.65620000     -36.82310000     -71.83070000
C      -43.29520000     -34.77190000     -71.29680000
C      -42.73310000     -35.04830000     -70.04230000
C      -43.31290000     -33.33600000     -71.61090000
H      -42.67710000     -36.01720000     -69.53500000
C      -42.75190000     -32.65810000     -70.57880000
C      -43.73800000     -32.51770000     -72.73780000
C      -43.50700000     -31.16580000     -72.39260000
S      -42.21620000     -33.61170000     -69.28790000
S      -42.65710000     -30.90470000     -70.83500000
H      -43.68500000     -30.27840000     -72.98530000
