40
Properties=species:S:1:pos:R:3 #=T CELL(abcABC):=T 1.889726e+02=T 90.00000=T Traj:=T positionsangstrom=T Step:=T 0=T Bead:=T pbc="F F F"
C      -49.62290000     -32.66240000     -70.93820000
C      -48.27570000     -32.32030000     -71.39830000
C      -47.20790000     -32.82760000     -70.73780000
C      -47.30240000     -33.95940000     -69.91850000
C      -48.58160000     -34.46120000     -69.62510000
C      -49.74580000     -33.79840000     -70.14440000
H      -50.54970000     -32.09830000     -71.23180000
H      -46.19060000     -32.50700000     -71.05770000
H      -48.75370000     -35.34630000     -69.04570000
H      -50.79410000     -34.08110000     -69.84000000
C      -46.03730000     -34.51910000     -69.25570000
H      -46.15970000     -34.65690000     -68.18550000
H      -45.20790000     -33.84510000     -69.52470000
C      -48.21310000     -31.37120000     -72.60200000
H      -49.03580000     -31.72250000     -73.22180000
H      -48.55170000     -30.34030000     -72.32230000
S      -45.88530000     -36.24870000     -69.80760000
S      -46.64270000     -31.23410000     -73.55950000
C      -45.73200000     -35.99220000     -71.61550000
H      -46.13940000     -36.89620000     -72.00430000
H      -46.43250000     -35.19550000     -71.94750000
C      -46.18670000     -32.99860000     -73.80720000
H      -46.63480000     -33.53060000     -74.71670000
H      -46.60160000     -33.56340000     -72.92180000
C      -44.63320000     -33.09950000     -73.97520000
H      -44.28850000     -34.11490000     -74.31100000
H      -44.43870000     -32.51550000     -74.91780000
C      -44.26820000     -35.80960000     -72.03250000
H      -44.37640000     -35.60280000     -73.16390000
H      -43.80580000     -36.76620000     -72.10120000
C      -43.44670000     -34.81270000     -71.34690000
C      -42.72180000     -35.09240000     -70.20360000
C      -43.34300000     -33.44830000     -71.76370000
H      -42.66350000     -36.00570000     -69.76150000
C      -42.55510000     -32.69720000     -70.85780000
C      -43.82350000     -32.58940000     -72.79410000
C      -43.49020000     -31.27500000     -72.59240000
S      -41.98290000     -33.69510000     -69.51740000
S      -42.50350000     -31.01240000     -71.16210000
H      -43.88330000     -30.45790000     -73.13250000
