40
Properties=species:S:1:pos:R:3 #=T CELL(abcABC):=T 1.889726e+02=T 90.00000=T Traj:=T positionsangstrom=T Step:=T 0=T Bead:=T pbc="F F F"
C      -49.60520000     -32.62490000     -70.54820000
C      -48.33700000     -32.21850000     -71.03390000
C      -47.14270000     -32.81380000     -70.46790000
C      -47.29080000     -33.99830000     -69.63700000
C      -48.55450000     -34.40940000     -69.27350000
C      -49.66670000     -33.74610000     -69.73010000
H      -50.47360000     -32.06820000     -70.91030000
H      -46.16600000     -32.56060000     -70.78010000
H      -48.70390000     -35.21220000     -68.59640000
H      -50.63300000     -34.07800000     -69.31730000
C      -46.08120000     -34.62410000     -69.09580000
H      -46.28890000     -34.76300000     -68.04980000
H      -45.15390000     -34.11590000     -69.39920000
C      -48.22760000     -31.26090000     -72.17480000
H      -48.95930000     -31.52900000     -72.92030000
H      -48.47780000     -30.23140000     -71.75720000
S      -45.86810000     -36.35170000     -69.76740000
S      -46.61660000     -31.07010000     -73.05280000
C      -45.84360000     -35.98740000     -71.54570000
H      -46.34670000     -36.73590000     -72.09830000
H      -46.44180000     -35.07560000     -71.66130000
C      -46.43990000     -32.81490000     -73.79710000
H      -47.11950000     -32.93010000     -74.73340000
H      -46.71850000     -33.60050000     -73.13740000
C      -44.92920000     -33.03800000     -74.15910000
H      -44.88640000     -34.09270000     -74.44560000
H      -44.61310000     -32.54870000     -75.08340000
C      -44.52440000     -35.82930000     -72.14380000
H      -44.67440000     -35.77200000     -73.20660000
H      -44.00960000     -36.76030000     -72.12460000
C      -43.52270000     -34.79700000     -71.51030000
C      -42.77540000     -35.09670000     -70.45040000
C      -43.35270000     -33.50060000     -72.02060000
H      -42.84700000     -36.06760000     -69.94350000
C      -42.42040000     -32.80830000     -71.24650000
C      -43.97650000     -32.64690000     -73.04750000
C      -43.50770000     -31.40690000     -72.97260000
S      -41.78330000     -33.71580000     -69.94160000
S      -42.31120000     -31.11190000     -71.61900000
H      -43.79370000     -30.56990000     -73.58990000
