40
Properties=species:S:1:pos:R:3 #=T CELL(abcABC):=T 1.889726e+02=T 90.00000=T Traj:=T positionsangstrom=T Step:=T 0=T Bead:=T pbc="F F F"
C      -49.52670000     -32.58970000     -70.56140000
C      -48.23750000     -32.14810000     -70.78970000
C      -47.13960000     -32.72420000     -70.17020000
C      -47.36360000     -33.88300000     -69.38730000
C      -48.67050000     -34.45930000     -69.28390000
C      -49.74480000     -33.76870000     -69.80930000
H      -50.40910000     -32.04020000     -70.86280000
H      -46.12110000     -32.25760000     -70.35620000
H      -48.83870000     -35.43160000     -68.80450000
H      -50.76390000     -34.06590000     -69.56380000
C      -46.26840000     -34.59320000     -68.68270000
H      -46.74080000     -34.97040000     -67.68540000
H      -45.46750000     -33.80320000     -68.62160000
C      -48.10000000     -31.06750000     -71.83300000
H      -48.96720000     -31.24240000     -72.52850000
H      -48.18320000     -30.08120000     -71.40750000
S      -45.78100000     -36.21640000     -69.53730000
S      -46.54120000     -31.08980000     -72.79290000
C      -46.05700000     -35.85720000     -71.33680000
H      -46.63290000     -36.72880000     -71.62350000
H      -46.73390000     -35.02480000     -71.36330000
C      -46.53590000     -32.76280000     -73.51070000
H      -47.19490000     -32.72510000     -74.38650000
H      -46.85600000     -33.60950000     -72.76430000
C      -45.15970000     -33.03550000     -74.15500000
H      -45.14080000     -34.07500000     -74.51660000
H      -45.05600000     -32.29340000     -74.95170000
C      -44.76740000     -35.79340000     -72.16450000
H      -45.00850000     -35.32920000     -73.17810000
H      -44.25390000     -36.76040000     -72.22230000
C      -43.72940000     -34.84970000     -71.55230000
C      -42.85710000     -35.13410000     -70.47390000
C      -43.44340000     -33.56390000     -72.16080000
H      -42.77870000     -36.00780000     -69.83640000
C      -42.37140000     -32.88100000     -71.54380000
C      -43.98170000     -32.80130000     -73.25990000
C      -43.29710000     -31.56500000     -73.43530000
S      -41.80840000     -33.73500000     -70.12200000
S      -41.98390000     -31.31170000     -72.30130000
H      -43.39110000     -30.69160000     -74.09510000
