40
Properties=species:S:1:pos:R:3 #=T CELL(abcABC):=T 1.889726e+02=T 90.00000=T Traj:=T positionsangstrom=T Step:=T 0=T Bead:=T pbc="F F F"
C      -49.47370000     -32.96720000     -70.70910000
C      -48.22360000     -32.27860000     -70.77610000
C      -47.12060000     -32.80690000     -70.04490000
C      -47.37430000     -33.78930000     -69.08690000
C      -48.64240000     -34.38390000     -68.91180000
C      -49.67210000     -33.93980000     -69.75510000
H      -50.39770000     -32.60920000     -71.26950000
H      -46.18440000     -32.36460000     -70.15910000
H      -48.77100000     -35.12390000     -68.14450000
H      -50.67390000     -34.38540000     -69.64590000
C      -46.29570000     -34.55380000     -68.38670000
H      -46.51020000     -34.76170000     -67.33090000
H      -45.28710000     -34.01070000     -68.35040000
C      -48.16070000     -31.17160000     -71.79960000
H      -48.94620000     -31.28060000     -72.54270000
H      -48.30810000     -30.15970000     -71.31720000
S      -45.96470000     -36.17220000     -69.21710000
S      -46.42190000     -31.05940000     -72.61300000
C      -46.06530000     -35.80090000     -71.03560000
H      -46.61430000     -36.63110000     -71.40020000
H      -46.69150000     -34.91180000     -71.14400000
C      -46.52710000     -32.74280000     -73.33490000
H      -47.50030000     -33.00150000     -73.88430000
H      -46.47950000     -33.42900000     -72.50850000
C      -45.33410000     -33.03670000     -74.18610000
H      -45.39080000     -34.10840000     -74.56800000
H      -45.40370000     -32.56910000     -75.19880000
C      -44.84480000     -35.79240000     -71.98250000
H      -45.25430000     -35.49930000     -72.93780000
H      -44.42800000     -36.80330000     -72.23810000
C      -43.71900000     -34.76390000     -71.68790000
C      -42.81900000     -34.97090000     -70.67090000
C      -43.50290000     -33.47330000     -72.32940000
H      -42.91280000     -35.78770000     -69.99580000
C      -42.40490000     -32.83880000     -71.83240000
C      -44.00750000     -32.78170000     -73.50940000
C      -43.30390000     -31.61960000     -73.74360000
S      -41.66600000     -33.61340000     -70.42080000
S      -41.94370000     -31.38580000     -72.67860000
H      -43.68400000     -30.78970000     -74.43710000
