40
Properties=species:S:1:pos:R:3 #=T CELL(abcABC):=T 1.889726e+02=T 90.00000=T Traj:=T positionsangstrom=T Step:=T 0=T Bead:=T pbc="F F F"
C      -49.53540000     -32.64090000     -70.22670000
C      -48.29000000     -32.03460000     -70.39620000
C      -47.14620000     -32.67160000     -69.88010000
C      -47.16890000     -33.82150000     -69.14510000
C      -48.46520000     -34.47720000     -69.00250000
C      -49.58470000     -33.83600000     -69.53320000
H      -50.45260000     -32.22160000     -70.66280000
H      -46.21140000     -32.13440000     -69.97490000
H      -48.44080000     -35.51050000     -68.58010000
H      -50.54480000     -34.38360000     -69.40780000
C      -45.90760000     -34.47690000     -68.72520000
H      -45.85250000     -34.58040000     -67.66240000
H      -45.14240000     -33.76650000     -69.04230000
C      -48.13490000     -30.83300000     -71.29350000
H      -49.08480000     -30.59020000     -71.77850000
H      -47.73300000     -29.97030000     -70.65990000
S      -45.72410000     -36.18240000     -69.45080000
S      -46.67880000     -31.01490000     -72.44600000
C      -45.91580000     -35.87530000     -71.19950000
H      -46.72860000     -36.57050000     -71.65180000
H      -46.44400000     -34.85130000     -71.29220000
C      -46.84970000     -32.77600000     -73.06970000
H      -47.68520000     -32.84420000     -73.74650000
H      -47.11060000     -33.37470000     -72.23500000
C      -45.67660000     -33.20320000     -73.93780000
H      -45.63260000     -34.21840000     -74.15270000
H      -45.72010000     -32.69610000     -74.93700000
C      -44.63980000     -35.95550000     -72.04800000
H      -44.96660000     -35.75080000     -73.03610000
H      -44.21380000     -36.97630000     -71.91440000
C      -43.54370000     -34.95610000     -71.73530000
C      -42.41820000     -35.24220000     -71.01180000
C      -43.51580000     -33.62490000     -72.36830000
H      -42.27340000     -36.02340000     -70.32640000
C      -42.40520000     -32.88910000     -71.98800000
C      -44.32790000     -32.86880000     -73.36660000
C      -43.84060000     -31.55280000     -73.52920000
S      -41.37590000     -33.77270000     -70.91310000
S      -42.29280000     -31.28220000     -72.67600000
H      -44.29550000     -30.80620000     -74.11640000
