40
Properties=species:S:1:pos:R:3 #=T CELL(abcABC):=T 1.889726e+02=T 90.00000=T Traj:=T positionsangstrom=T Step:=T 0=T Bead:=T pbc="F F F"
C      -46.65850000     -34.82440000     -69.89730000
C      -47.30620000     -34.64710000     -71.15170000
C      -46.64960000     -35.03610000     -72.37730000
C      -45.40040000     -35.61080000     -72.34010000
C      -44.71400000     -35.58320000     -71.11430000
C      -45.29460000     -35.20980000     -69.92480000
H      -47.22790000     -34.65100000     -68.94600000
H      -47.11690000     -34.87210000     -73.33480000
H      -43.67740000     -35.87740000     -71.15300000
H      -44.78690000     -35.45040000     -68.93410000
C      -44.80990000     -36.26760000     -73.54920000
H      -45.49380000     -37.14340000     -73.79650000
H      -43.85200000     -36.74290000     -73.27900000
C      -48.69530000     -34.06690000     -71.29880000
H      -49.02750000     -34.33140000     -72.31420000
H      -49.29850000     -34.75220000     -70.71290000
S      -44.57490000     -35.16340000     -75.03370000
S      -49.03110000     -32.49000000     -70.46130000
C      -43.45640000     -33.93890000     -74.27020000
H      -42.52510000     -34.41170000     -73.87480000
H      -43.09800000     -33.25720000     -75.05990000
C      -48.17330000     -31.16260000     -71.38590000
H      -48.31280000     -30.21340000     -70.88270000
H      -48.80090000     -31.07230000     -72.31310000
C      -46.71390000     -31.33060000     -71.71300000
H      -46.52620000     -32.06000000     -72.46320000
H      -46.26140000     -30.49190000     -72.14690000
C      -44.17650000     -32.94090000     -73.33870000
H      -45.16100000     -33.31090000     -73.13500000
H      -44.30690000     -32.02560000     -73.89470000
C      -43.69000000     -32.69100000     -71.95870000
C      -42.35870000     -32.97040000     -71.61180000
C      -44.43030000     -32.27980000     -70.84250000
H      -41.56890000     -33.18960000     -72.27600000
C      -43.65510000     -32.30230000     -69.64200000
C      -45.74230000     -31.78000000     -70.59430000
C      -45.93700000     -31.51070000     -69.26120000
S      -41.93510000     -32.56760000     -69.96540000
S      -44.55260000     -31.94840000     -68.21440000
H      -46.79010000     -31.07270000     -68.80980000
