40
Properties=species:S:1:pos:R:3 #=T CELL(abcABC):=T 1.889726e+02=T 90.00000=T Traj:=T positionsangstrom=T Step:=T 0=T Bead:=T pbc="F F F"
C      -49.32390000     -32.52600000     -70.13370000
C      -48.01240000     -32.12950000     -70.48410000
C      -46.93920000     -32.80910000     -69.94170000
C      -47.10590000     -33.94850000     -69.08170000
C      -48.38790000     -34.29370000     -68.69980000
C      -49.50930000     -33.58990000     -69.20860000
H      -50.20090000     -31.86030000     -70.44930000
H      -45.90140000     -32.57200000     -70.21210000
H      -48.58960000     -35.16530000     -68.06470000
H      -50.55650000     -33.99010000     -69.13580000
C      -45.84270000     -34.67970000     -68.58920000
H      -45.91140000     -34.98260000     -67.50470000
H      -44.93680000     -34.09620000     -68.74250000
C      -47.84540000     -30.82590000     -71.12090000
H      -48.81350000     -30.41470000     -71.38390000
H      -47.44430000     -30.03440000     -70.53040000
S      -45.73320000     -36.33720000     -69.51940000
S      -46.82340000     -30.77370000     -72.69170000
C      -46.01310000     -35.83000000     -71.30250000
H      -46.83840000     -36.46800000     -71.66620000
H      -46.40800000     -34.81340000     -71.33350000
C      -46.95310000     -32.59040000     -73.03430000
H      -47.89900000     -32.71650000     -73.54630000
H      -47.03680000     -33.09030000     -72.12470000
C      -45.74790000     -33.16470000     -73.82470000
H      -45.84610000     -34.24970000     -73.88270000
H      -45.72560000     -32.90480000     -74.81470000
C      -44.72650000     -35.95940000     -72.11350000
H      -45.14730000     -35.95000000     -73.12500000
H      -44.34980000     -36.94850000     -72.09440000
C      -43.63890000     -34.96440000     -71.86080000
C      -42.52070000     -35.31640000     -71.18200000
C      -43.61200000     -33.56760000     -72.36280000
H      -42.29340000     -36.28800000     -70.76610000
C      -42.45320000     -32.94980000     -71.96450000
C      -44.41400000     -32.77670000     -73.27990000
C      -43.80120000     -31.50050000     -73.46650000
S      -41.44250000     -33.93990000     -71.02720000
S      -42.28130000     -31.31950000     -72.60130000
H      -44.17770000     -30.70400000     -74.14270000
