40
Properties=species:S:1:pos:R:3 #=T CELL(abcABC):=T 1.889726e+02=T 90.00000=T Traj:=T positionsangstrom=T Step:=T 0=T Bead:=T pbc="F F F"
C      -48.66360000     -32.23150000     -69.72830000
C      -47.41960000     -31.90580000     -70.29780000
C      -46.28130000     -32.68430000     -69.99400000
C      -46.44870000     -33.79370000     -69.11690000
C      -47.76650000     -34.15220000     -68.75660000
C      -48.89840000     -33.36800000     -69.00970000
H      -49.43270000     -31.42060000     -69.74420000
H      -45.29730000     -32.35720000     -70.34750000
H      -47.92350000     -35.10780000     -68.27560000
H      -49.92700000     -33.55390000     -68.67630000
C      -45.32730000     -34.76030000     -68.76670000
H      -45.26630000     -34.98930000     -67.72010000
H      -44.35380000     -34.36580000     -69.07110000
C      -47.27560000     -30.61780000     -71.09970000
H      -47.84500000     -29.81680000     -70.63620000
H      -46.17230000     -30.34080000     -71.00650000
S      -45.52400000     -36.45620000     -69.65710000
S      -47.76910000     -31.02340000     -72.89700000
C      -46.12550000     -36.03670000     -71.34230000
H      -46.84140000     -36.91980000     -71.56560000
H      -46.88160000     -35.17240000     -71.18010000
C      -47.14330000     -32.67670000     -73.13790000
H      -47.92240000     -33.14850000     -73.73000000
H      -46.98990000     -33.14070000     -72.08770000
C      -45.82170000     -32.74640000     -73.96370000
H      -45.92410000     -33.69300000     -74.41760000
H      -45.95180000     -31.97780000     -74.79050000
C      -45.13630000     -35.87190000     -72.48400000
H      -45.65880000     -35.50410000     -73.38320000
H      -44.63030000     -36.78650000     -72.68730000
C      -44.00700000     -34.94450000     -72.04890000
C      -43.01060000     -35.38320000     -71.25610000
C      -43.80560000     -33.60890000     -72.40860000
H      -42.77640000     -36.34810000     -70.83090000
C      -42.63390000     -33.05600000     -71.93980000
C      -44.48740000     -32.62460000     -73.25030000
C      -43.78190000     -31.45210000     -73.35050000
S      -41.80180000     -34.18440000     -70.86140000
S      -42.36740000     -31.33700000     -72.29770000
H      -44.20080000     -30.49930000     -73.80930000
