40
Properties=species:S:1:pos:R:3 #=T CELL(abcABC):=T 1.889726e+02=T 90.00000=T Traj:=T positionsangstrom=T Step:=T 0=T Bead:=T pbc="F F F"
C      -48.47930000     -32.09900000     -69.69640000
C      -47.21310000     -31.98200000     -70.23800000
C      -46.18400000     -32.81340000     -69.88620000
C      -46.39280000     -33.86800000     -68.99350000
C      -47.65410000     -33.96710000     -68.45600000
C      -48.67410000     -33.05650000     -68.66830000
H      -49.25680000     -31.32290000     -70.02240000
H      -45.23880000     -32.74930000     -70.36450000
H      -47.82570000     -34.78290000     -67.74350000
H      -49.60810000     -33.27670000     -68.19710000
C      -45.26570000     -34.91860000     -68.85860000
H      -45.15000000     -35.18030000     -67.80040000
H      -44.26720000     -34.44410000     -69.11450000
C      -46.94350000     -30.93760000     -71.28390000
H      -46.97680000     -29.92990000     -70.99500000
H      -45.80620000     -30.95560000     -71.32920000
S      -45.47590000     -36.52350000     -69.82830000
S      -47.69390000     -31.16690000     -72.98200000
C      -46.07490000     -36.02170000     -71.47780000
H      -46.75110000     -36.74780000     -71.75750000
H      -46.63950000     -35.10780000     -71.43660000
C      -47.22140000     -32.85710000     -73.40180000
H      -48.01860000     -33.25340000     -73.99600000
H      -47.06500000     -33.51630000     -72.50610000
C      -45.92320000     -32.84760000     -74.17480000
H      -45.89110000     -33.80670000     -74.58380000
H      -45.81640000     -32.07270000     -74.93940000
C      -44.96270000     -35.99230000     -72.59040000
H      -45.58580000     -35.83330000     -73.51760000
H      -44.51710000     -36.99840000     -72.69320000
C      -43.87190000     -35.01050000     -72.24930000
C      -42.85680000     -35.33320000     -71.36360000
C      -43.83400000     -33.54960000     -72.50300000
H      -42.72980000     -36.34070000     -71.00240000
C      -42.79640000     -32.93900000     -71.80870000
C      -44.65560000     -32.57990000     -73.27490000
C      -44.28830000     -31.23530000     -72.99450000
S      -41.85650000     -34.01770000     -70.84920000
S      -42.78140000     -31.21160000     -72.01930000
H      -44.71410000     -30.29650000     -73.43660000
