40
Properties=species:S:1:pos:R:3 #=T CELL(abcABC):=T 1.889726e+02=T 90.00000=T Traj:=T positionsangstrom=T Step:=T 0=T Bead:=T pbc="F F F"
C      -43.80920000     -35.28800000     -74.05190000
C      -42.76870000     -34.48250000     -73.44070000
C      -42.90570000     -33.07320000     -73.46220000
C      -44.01370000     -32.48010000     -74.07990000
C      -44.94310000     -33.31960000     -74.75370000
C      -44.77670000     -34.68550000     -74.78110000
H      -43.86220000     -36.37680000     -74.07800000
H      -42.25760000     -32.40530000     -72.91330000
H      -45.72330000     -32.92440000     -75.33840000
H      -45.44980000     -35.36260000     -75.43250000
C      -44.44410000     -30.98980000     -74.06030000
H      -45.51820000     -30.98920000     -74.45250000
H      -44.03200000     -30.44340000     -74.88270000
C      -41.66900000     -35.10590000     -72.55140000
H      -41.70880000     -36.17720000     -72.63980000
H      -40.72660000     -34.87340000     -73.01670000
S      -44.14030000     -30.18120000     -72.42130000
S      -41.72560000     -34.62700000     -70.78520000
C      -45.42510000     -30.96130000     -71.34430000
H      -44.87590000     -31.43450000     -70.61620000
H      -45.80230000     -30.15590000     -70.75960000
C      -43.36800000     -35.16240000     -70.12700000
H      -43.20260000     -35.04690000     -69.03180000
H      -43.59730000     -36.25320000     -70.35640000
C      -44.51540000     -34.26700000     -70.57710000
H      -44.18100000     -33.28490000     -70.37740000
H      -44.71310000     -34.33380000     -71.63300000
C      -46.52870000     -31.75730000     -71.98760000
H      -46.09900000     -32.52910000     -72.59660000
H      -47.22010000     -31.09640000     -72.53320000
C      -47.34670000     -32.36920000     -70.83680000
C      -48.61420000     -31.88120000     -70.61160000
C      -47.01620000     -33.53430000     -70.00440000
H      -49.08910000     -31.10820000     -71.17220000
C      -48.05790000     -33.84140000     -69.09820000
C      -45.82500000     -34.39080000     -69.78280000
C      -45.96890000     -35.24580000     -68.69280000
S      -49.43980000     -32.78310000     -69.34940000
S      -47.62720000     -35.20270000     -68.04760000
H      -45.34380000     -35.96570000     -68.21800000
