40
Properties=species:S:1:pos:R:3 #=T CELL(abcABC):=T 1.889726e+02=T 90.00000=T Traj:=T positionsangstrom=T Step:=T 0=T Bead:=T pbc="F F F"
C      -44.96870000     -35.06580000     -74.53750000
C      -43.77410000     -34.56690000     -73.93200000
C      -43.38530000     -35.24390000     -72.75020000
C      -44.05930000     -36.38870000     -72.22060000
C      -45.21380000     -36.84590000     -72.89350000
C      -45.67280000     -36.13210000     -74.00280000
H      -45.45950000     -34.46160000     -75.37780000
H      -42.52390000     -34.80570000     -72.21620000
H      -45.74180000     -37.70620000     -72.52220000
H      -46.66540000     -36.26540000     -74.50180000
C      -43.54590000     -37.09560000     -70.99900000
H      -42.59710000     -37.59900000     -71.20610000
H      -44.16290000     -37.97640000     -70.73400000
C      -42.96640000     -33.32260000     -74.39210000
H      -42.14680000     -33.74490000     -75.01290000
H      -43.56990000     -32.66620000     -75.06910000
S      -43.30540000     -35.85350000     -69.61490000
S      -42.33710000     -32.31940000     -73.08100000
C      -44.86550000     -35.01390000     -69.47800000
H      -45.37700000     -35.26950000     -70.39680000
H      -45.47710000     -35.42300000     -68.62570000
C      -43.77740000     -31.39420000     -72.27340000
H      -43.90320000     -30.40300000     -72.75580000
H      -43.48660000     -31.14950000     -71.23290000
C      -45.14080000     -32.14310000     -72.39860000
H      -45.44440000     -32.12570000     -73.45430000
H      -44.98980000     -33.26100000     -72.21560000
C      -44.81670000     -33.45660000     -69.27640000
H      -44.23090000     -33.05570000     -70.11530000
H      -44.35000000     -33.22200000     -68.34870000
C      -46.06440000     -32.71300000     -69.19430000
C      -46.81820000     -32.68440000     -68.05940000
C      -46.63860000     -32.04150000     -70.35350000
H      -46.70970000     -33.23690000     -67.17460000
C      -47.84840000     -31.48310000     -69.94390000
C      -46.24560000     -31.55390000     -71.64630000
C      -47.17630000     -30.66630000     -72.18710000
S      -48.39330000     -31.91180000     -68.35090000
S      -48.51080000     -30.47240000     -71.12950000
H      -47.15640000     -30.25600000     -73.19870000
