40
Properties=species:S:1:pos:R:3 #=T CELL(abcABC):=T 1.889726e+02=T 90.00000=T Traj:=T positionsangstrom=T Step:=T 0=T Bead:=T pbc="F F F"
C      -46.08800000     -35.73040000     -72.29810000
C      -46.23650000     -34.45260000     -72.83270000
C      -47.06580000     -33.50480000     -72.22000000
C      -47.79960000     -33.85180000     -71.08840000
C      -47.67060000     -35.16750000     -70.55120000
C      -46.81350000     -36.05410000     -71.11960000
H      -45.41860000     -36.55810000     -72.64860000
H      -47.15180000     -32.53200000     -72.67420000
H      -48.20710000     -35.32370000     -69.60790000
H      -46.82000000     -37.01550000     -70.66970000
C      -48.68710000     -32.77170000     -70.49890000
H      -49.56530000     -33.23520000     -69.86620000
H      -49.19810000     -32.38700000     -71.37960000
C      -45.31240000     -34.04940000     -74.04310000
H      -44.30320000     -34.34400000     -74.00570000
H      -45.78090000     -34.74270000     -74.79430000
S      -47.82110000     -31.45470000     -69.52890000
S      -45.39110000     -32.32040000     -74.51620000
C      -46.45490000     -30.85140000     -70.59390000
H      -46.33000000     -31.52510000     -71.41030000
H      -46.79640000     -29.91850000     -70.96650000
C      -43.69670000     -31.74350000     -74.19110000
H      -43.64520000     -30.74020000     -74.71540000
H      -42.95320000     -32.33280000     -74.72200000
C      -43.32970000     -31.65860000     -72.68870000
H      -42.28360000     -31.22380000     -72.65720000
H      -44.06050000     -31.04610000     -72.16500000
C      -44.99170000     -30.88660000     -69.94350000
H      -45.13910000     -30.36910000     -68.96630000
H      -44.27860000     -30.21540000     -70.49100000
C      -44.55850000     -32.26950000     -69.72890000
C      -44.92110000     -33.04170000     -68.62760000
C      -43.83240000     -33.10100000     -70.63740000
H      -45.38630000     -32.70780000     -67.66940000
C      -43.68150000     -34.42450000     -70.21930000
C      -43.28910000     -32.96770000     -71.97860000
C      -42.75770000     -34.10180000     -72.41740000
S      -44.47060000     -34.73840000     -68.72540000
S      -42.80360000     -35.43280000     -71.27270000
H      -42.06380000     -34.18260000     -73.27450000
