40
Properties=species:S:1:pos:R:3 #=T CELL(abcABC):=T 1.889726e+02=T 90.00000=T Traj:=T positionsangstrom=T Step:=T 0=T Bead:=T pbc="F F F"
C      -46.02510000     -35.64860000     -72.30540000
C      -46.20330000     -34.44500000     -73.03170000
C      -47.11800000     -33.55200000     -72.50100000
C      -47.64290000     -33.67520000     -71.18090000
C      -47.41160000     -34.87160000     -70.43310000
C      -46.62170000     -35.86500000     -71.06620000
H      -45.38990000     -36.50450000     -72.74950000
H      -47.46840000     -32.65830000     -73.00210000
H      -47.92900000     -35.13970000     -69.49630000
H      -46.37950000     -36.79030000     -70.53720000
C      -48.52870000     -32.63810000     -70.60020000
H      -49.04240000     -33.03410000     -69.74140000
H      -49.18700000     -32.25080000     -71.36480000
C      -45.57680000     -34.21100000     -74.36280000
H      -44.50970000     -34.52730000     -74.43190000
H      -46.15590000     -34.64140000     -75.17680000
S      -47.71140000     -31.22250000     -69.72810000
S      -45.33660000     -32.33380000     -74.71590000
C      -46.21380000     -30.57610000     -70.61500000
H      -46.17900000     -30.98340000     -71.67150000
H      -46.20720000     -29.46320000     -70.67090000
C      -43.59780000     -31.99810000     -74.17580000
H      -43.31520000     -31.00520000     -74.49540000
H      -42.92430000     -32.77970000     -74.53450000
C      -43.36840000     -31.85970000     -72.60440000
H      -42.39150000     -31.33880000     -72.63310000
H      -43.96070000     -31.07800000     -72.17770000
C      -44.99180000     -30.90640000     -69.74620000
H      -45.21750000     -30.52110000     -68.77440000
H      -44.10260000     -30.53700000     -70.17160000
C      -44.73600000     -32.40540000     -69.58580000
C      -45.20100000     -33.13050000     -68.49440000
C      -44.00740000     -33.23660000     -70.50920000
H      -45.67860000     -32.66270000     -67.66170000
C      -43.81690000     -34.56250000     -70.08190000
C      -43.31750000     -33.05200000     -71.75720000
C      -42.56870000     -34.10310000     -72.17290000
S      -44.68500000     -34.82530000     -68.56710000
S      -42.87550000     -35.53400000     -71.20780000
H      -42.31440000     -34.16420000     -73.21500000
