40
Properties=species:S:1:pos:R:3 #=T CELL(abcABC):=T 1.889726e+02=T 90.00000=T Traj:=T positionsangstrom=T Step:=T 0=T Bead:=T pbc="F F F"
C      -44.03020000     -34.61440000     -74.09390000
C      -42.91690000     -33.90020000     -73.54480000
C      -42.89170000     -32.49930000     -73.67430000
C      -44.01350000     -31.73180000     -74.08620000
C      -45.09730000     -32.47160000     -74.54630000
C      -45.11410000     -33.90000000     -74.61010000
H      -44.10320000     -35.66360000     -74.15090000
H      -42.09250000     -31.93300000     -73.24030000
H      -45.89630000     -31.86490000     -74.92950000
H      -45.99590000     -34.43070000     -74.88560000
C      -44.10340000     -30.23710000     -73.84470000
H      -44.25890000     -29.73360000     -74.79660000
H      -43.19570000     -29.78040000     -73.39150000
C      -41.79680000     -34.74970000     -72.98220000
H      -42.06230000     -35.81860000     -73.20530000
H      -40.77210000     -34.49740000     -73.36510000
S      -45.53640000     -29.69510000     -72.81110000
S      -41.58300000     -34.74090000     -71.18020000
C      -45.57780000     -31.06920000     -71.43350000
H      -44.60500000     -31.43010000     -71.32330000
H      -45.84170000     -30.50160000     -70.48240000
C      -43.13230000     -35.41970000     -70.46980000
H      -42.82910000     -35.73010000     -69.46170000
H      -43.23490000     -36.39840000     -70.95340000
C      -44.32200000     -34.44930000     -70.60800000
H      -44.07170000     -33.38350000     -70.35160000
H      -44.78360000     -34.45020000     -71.60640000
C      -46.65040000     -32.07540000     -71.79620000
H      -46.34050000     -32.76360000     -72.53020000
H      -47.32330000     -31.46360000     -72.37590000
C      -47.25230000     -32.84190000     -70.58780000
C      -48.52500000     -32.45000000     -70.17750000
C      -46.71740000     -33.93150000     -69.87870000
H      -49.06060000     -31.61620000     -70.64280000
C      -47.64210000     -34.28080000     -68.87870000
C      -45.49760000     -34.74180000     -69.71680000
C      -45.60420000     -35.69490000     -68.79770000
S      -49.25420000     -33.49730000     -68.98540000
S      -47.04130000     -35.61830000     -67.81500000
H      -44.83960000     -36.36780000     -68.52090000
