40
Properties=species:S:1:pos:R:3 #=T CELL(abcABC):=T 1.889726e+02=T 90.00000=T Traj:=T positionsangstrom=T Step:=T 0=T Bead:=T pbc="F F F"
C      -46.38770000     -35.48670000     -72.94630000
C      -46.05710000     -34.31910000     -73.68470000
C      -46.76560000     -33.17470000     -73.33120000
C      -47.66490000     -33.11570000     -72.24830000
C      -47.92650000     -34.29050000     -71.54230000
C      -47.36160000     -35.52000000     -71.97620000
H      -45.82910000     -36.39270000     -73.21550000
H      -46.58060000     -32.28490000     -73.94770000
H      -48.62680000     -34.35080000     -70.69830000
H      -47.60660000     -36.43880000     -71.51470000
C      -48.41040000     -31.80270000     -71.89660000
H      -49.47100000     -32.12630000     -71.65790000
H      -48.36340000     -31.10880000     -72.66080000
C      -45.07400000     -34.42930000     -74.79490000
H      -44.36340000     -35.19820000     -74.66470000
H      -45.56360000     -34.69500000     -75.74650000
S      -47.58850000     -31.02950000     -70.40290000
S      -44.03540000     -32.96200000     -75.05970000
C      -45.91230000     -30.72200000     -71.02110000
H      -45.73250000     -31.48460000     -71.82250000
H      -45.93930000     -29.79910000     -71.48460000
C      -42.84820000     -32.97920000     -73.68490000
H      -42.09620000     -32.24050000     -74.06280000
H      -42.39160000     -33.98710000     -73.68930000
C      -43.20270000     -32.54520000     -72.23790000
H      -42.27810000     -32.09980000     -71.86360000
H      -43.92700000     -31.67560000     -72.09560000
C      -44.87060000     -30.81290000     -69.91110000
H      -45.11160000     -30.05890000     -69.12770000
H      -43.89920000     -30.58100000     -70.40710000
C      -44.76180000     -32.17460000     -69.29310000
C      -45.11170000     -32.43270000     -67.93070000
C      -44.30500000     -33.37870000     -69.98050000
H      -45.43710000     -31.74160000     -67.22780000
C      -44.43290000     -34.50020000     -69.16750000
C      -43.72830000     -33.66170000     -71.28360000
C      -43.30100000     -34.97590000     -71.35980000
S      -44.94040000     -34.10520000     -67.51620000
S      -43.67360000     -35.92200000     -69.91410000
H      -42.92420000     -35.48610000     -72.25960000
