40
Properties=species:S:1:pos:R:3 #=T CELL(abcABC):=T 1.889726e+02=T 90.00000=T Traj:=T positionsangstrom=T Step:=T 0=T Bead:=T pbc="F F F"
C      -46.36060000     -35.58870000     -72.98160000
C      -45.90280000     -34.41520000     -73.53940000
C      -46.60930000     -33.22920000     -73.29290000
C      -47.61060000     -33.11470000     -72.34420000
C      -48.01570000     -34.31010000     -71.73910000
C      -47.43740000     -35.49640000     -72.04970000
H      -45.94320000     -36.53620000     -73.22750000
H      -46.28140000     -32.36160000     -73.86650000
H      -48.76620000     -34.24020000     -70.95800000
H      -47.73470000     -36.41140000     -71.50620000
C      -48.31950000     -31.81930000     -71.99620000
H      -49.30930000     -32.09090000     -71.65670000
H      -48.44140000     -31.02460000     -72.78190000
C      -44.85580000     -34.51440000     -74.70040000
H      -44.14380000     -35.33900000     -74.54780000
H      -45.36140000     -34.68440000     -75.65700000
S      -47.67260000     -31.07020000     -70.41900000
S      -43.82940000     -32.95120000     -74.97950000
C      -45.98840000     -30.58180000     -70.99190000
H      -45.88940000     -31.13050000     -71.97810000
H      -46.05150000     -29.47400000     -71.31450000
C      -42.67810000     -33.10100000     -73.61810000
H      -41.75790000     -32.63820000     -73.87720000
H      -42.29300000     -34.13850000     -73.59290000
C      -43.25570000     -32.68610000     -72.26070000
H      -42.59520000     -31.95290000     -71.76230000
H      -44.17300000     -32.16920000     -72.51030000
C      -44.79630000     -30.73780000     -70.05430000
H      -44.87530000     -30.01080000     -69.23410000
H      -43.80740000     -30.54430000     -70.48810000
C      -44.76330000     -32.09110000     -69.42010000
C      -45.21910000     -32.26830000     -68.12200000
C      -44.17250000     -33.34690000     -69.95960000
H      -45.70350000     -31.50010000     -67.53600000
C      -44.43120000     -34.38270000     -69.13990000
C      -43.54430000     -33.77920000     -71.23820000
C      -43.29220000     -35.10100000     -71.23150000
S      -45.13400000     -33.92430000     -67.56480000
S      -43.93280000     -35.97690000     -69.76900000
H      -42.85380000     -35.67540000     -72.12650000
