40
Properties=species:S:1:pos:R:3 #=T CELL(abcABC):=T 1.889726e+02=T 90.00000=T Traj:=T positionsangstrom=T Step:=T 0=T Bead:=T pbc="F F F"
C      -46.24480000     -35.69990000     -72.91680000
C      -45.76020000     -34.58700000     -73.65350000
C      -46.28860000     -33.33240000     -73.44300000
C      -47.31020000     -33.13280000     -72.43510000
C      -47.73460000     -34.20680000     -71.69390000
C      -47.30140000     -35.50200000     -71.96760000
H      -45.71890000     -36.64630000     -72.94360000
H      -45.94130000     -32.38850000     -73.91690000
H      -48.55080000     -34.04770000     -70.95210000
H      -47.73380000     -36.31790000     -71.41390000
C      -47.98690000     -31.75600000     -72.34920000
H      -49.12650000     -31.98170000     -72.38550000
H      -47.78810000     -31.22390000     -73.22930000
C      -44.64370000     -34.78750000     -74.71910000
H      -44.17210000     -35.75100000     -74.63410000
H      -45.07720000     -34.69040000     -75.77390000
S      -47.45720000     -30.84810000     -70.79090000
S      -43.41560000     -33.39950000     -74.74600000
C      -45.74390000     -30.43260000     -71.27320000
H      -45.52650000     -31.21710000     -72.05340000
H      -45.49920000     -29.49960000     -71.67620000
C      -42.31160000     -33.69240000     -73.27250000
H      -41.48450000     -33.06940000     -73.51690000
H      -42.06340000     -34.71840000     -73.13120000
C      -42.90090000     -32.96080000     -71.99330000
H      -42.15350000     -32.29170000     -71.57160000
H      -43.69810000     -32.27900000     -72.36540000
C      -44.66820000     -30.60550000     -70.09700000
H      -44.65630000     -29.84260000     -69.31660000
H      -43.71210000     -30.61190000     -70.54320000
C      -44.89870000     -31.93330000     -69.35930000
C      -45.66680000     -32.03450000     -68.28930000
C      -44.40710000     -33.20200000     -69.83030000
H      -46.27990000     -31.26500000     -67.79880000
C      -44.84230000     -34.22480000     -69.03110000
C      -43.63730000     -33.75060000     -70.93500000
C      -43.52430000     -35.13500000     -70.94760000
S      -45.99860000     -33.64180000     -67.83610000
S      -44.33050000     -35.82620000     -69.52790000
H      -43.11360000     -35.75550000     -71.67200000
