40
Properties=species:S:1:pos:R:3 #=T CELL(abcABC):=T 1.889726e+02=T 90.00000=T Traj:=T positionsangstrom=T Step:=T 0=T Bead:=T pbc="F F F"
C      -43.33940000     -32.87980000     -75.42530000
C      -43.12310000     -33.25150000     -74.07470000
C      -43.17790000     -32.25880000     -73.09310000
C      -43.66380000     -30.95960000     -73.37430000
C      -43.86270000     -30.61290000     -74.78060000
C      -43.63750000     -31.58520000     -75.78370000
H      -43.10450000     -33.62460000     -76.20790000
H      -43.05170000     -32.63030000     -72.06350000
H      -44.02610000     -29.60550000     -74.95750000
H      -43.56510000     -31.29520000     -76.84060000
C      -43.89810000     -29.91070000     -72.30890000
H      -43.60230000     -28.92200000     -72.68390000
H      -43.20790000     -30.04330000     -71.40510000
C      -42.67080000     -34.63760000     -73.83080000
H      -43.43640000     -35.37180000     -73.94000000
H      -41.85080000     -34.89640000     -74.56920000
S      -45.66510000     -29.83900000     -71.59160000
S      -41.88690000     -34.84670000     -72.08730000
C      -46.07900000     -31.34960000     -70.62430000
H      -45.21830000     -32.01000000     -70.43120000
H      -46.52700000     -31.03360000     -69.66260000
C      -43.30850000     -35.33690000     -71.06650000
H      -42.93810000     -35.59090000     -70.05700000
H      -43.73170000     -36.21360000     -71.49740000
C      -44.45340000     -34.31750000     -70.88430000
H      -44.10790000     -33.32710000     -70.53220000
H      -45.01830000     -34.15780000     -71.83110000
C      -47.16080000     -32.16200000     -71.33850000
H      -46.69770000     -32.74290000     -72.25320000
H      -47.88130000     -31.47710000     -71.83060000
C      -47.71940000     -33.24210000     -70.36200000
C      -49.01940000     -33.28150000     -69.88370000
C      -46.90900000     -34.38040000     -69.83210000
H      -49.76960000     -32.45670000     -69.98040000
C      -47.65460000     -35.14130000     -68.89280000
C      -45.54600000     -34.84130000     -69.93130000
C      -45.30380000     -35.91720000     -69.08580000
S      -49.29250000     -34.64870000     -68.76370000
S      -46.67860000     -36.27180000     -68.05120000
H      -44.39900000     -36.55820000     -68.87680000
