40
Properties=species:S:1:pos:R:3 #=T CELL(abcABC):=T 1.889726e+02=T 90.00000=T Traj:=T positionsangstrom=T Step:=T 0=T Bead:=T pbc="F F F"
C      -43.33010000     -32.72320000     -75.47750000
C      -43.29980000     -33.15680000     -74.15060000
C      -43.43440000     -32.20730000     -73.11010000
C      -43.71110000     -30.87760000     -73.33070000
C      -44.05930000     -30.49760000     -74.67280000
C      -43.68320000     -31.38630000     -75.69370000
H      -42.97010000     -33.39830000     -76.21270000
H      -43.06500000     -32.52320000     -72.13590000
H      -44.37830000     -29.48730000     -74.88900000
H      -43.97010000     -31.12300000     -76.74540000
C      -43.80120000     -30.05360000     -72.06890000
H      -43.40970000     -29.00540000     -72.05310000
H      -43.37410000     -30.58420000     -71.27410000
C      -42.96720000     -34.62830000     -73.75980000
H      -43.94100000     -35.19580000     -73.83890000
H      -42.37930000     -35.11530000     -74.52860000
S      -45.63220000     -29.74790000     -71.55290000
S      -42.05570000     -34.91260000     -72.26790000
C      -46.03400000     -31.32740000     -70.61090000
H      -45.07730000     -31.77450000     -70.37550000
H      -46.50490000     -31.02250000     -69.64800000
C      -43.41150000     -35.51130000     -71.15090000
H      -42.94920000     -35.84070000     -70.22880000
H      -43.95040000     -36.40410000     -71.60260000
C      -44.36600000     -34.34230000     -70.72460000
H      -43.63630000     -33.66160000     -70.26270000
H      -44.90510000     -33.87470000     -71.53730000
C      -47.06600000     -32.24780000     -71.34450000
H      -46.69720000     -32.68090000     -72.24740000
H      -47.89340000     -31.67620000     -71.65130000
C      -47.53170000     -33.36180000     -70.46700000
C      -48.83170000     -33.29220000     -69.99600000
C      -46.73460000     -34.38730000     -69.80770000
H      -49.58180000     -32.56260000     -70.30420000
C      -47.56230000     -35.15860000     -68.93980000
C      -45.34640000     -34.81230000     -69.77360000
C      -45.20420000     -35.89530000     -68.91420000
S      -49.22530000     -34.55560000     -68.82000000
S      -46.64350000     -36.46230000     -68.11790000
H      -44.19620000     -36.09900000     -68.55470000
