40
Properties=species:S:1:pos:R:3 #=T CELL(abcABC):=T 1.889726e+02=T 90.00000=T Traj:=T positionsangstrom=T Step:=T 0=T Bead:=T pbc="F F F"
C      -44.05260000     -32.39510000     -75.39680000
C      -43.50620000     -32.83970000     -74.15190000
C      -43.54400000     -31.96990000     -73.03700000
C      -43.88380000     -30.63630000     -73.11440000
C      -44.17100000     -30.10430000     -74.38520000
C      -44.24700000     -30.99440000     -75.44400000
H      -43.96510000     -33.01040000     -76.28790000
H      -43.18330000     -32.36740000     -72.09030000
H      -44.32390000     -29.04180000     -74.51940000
H      -44.61680000     -30.53170000     -76.35320000
C      -43.89730000     -29.78330000     -71.92830000
H      -43.66650000     -28.74900000     -72.25060000
H      -43.24420000     -30.20240000     -71.21240000
C      -43.14080000     -34.34250000     -74.07570000
H      -44.10090000     -34.85490000     -74.13540000
H      -42.53430000     -34.57470000     -74.90810000
S      -45.66960000     -29.72070000     -71.29930000
S      -42.14080000     -35.00120000     -72.66190000
C      -45.93290000     -31.31220000     -70.36890000
H      -44.99040000     -31.72000000     -69.92590000
H      -46.61840000     -31.04170000     -69.53040000
C      -43.34090000     -35.57200000     -71.40720000
H      -42.92890000     -36.44940000     -70.94500000
H      -44.14940000     -35.87070000     -72.08120000
C      -43.90200000     -34.67680000     -70.26390000
H      -43.07830000     -34.73080000     -69.51110000
H      -44.06440000     -33.60210000     -70.50630000
C      -46.52190000     -32.36130000     -71.28510000
H      -45.82480000     -32.75690000     -72.07760000
H      -47.34000000     -31.92890000     -71.91830000
C      -47.13280000     -33.47570000     -70.47240000
C      -48.45880000     -33.32350000     -70.15600000
C      -46.44340000     -34.48880000     -69.64300000
H      -49.08990000     -32.43750000     -70.36690000
C      -47.42930000     -35.17910000     -68.94430000
C      -45.21220000     -35.22040000     -69.58940000
C      -45.32170000     -36.44760000     -69.02880000
S      -48.99050000     -34.53290000     -68.98530000
S      -46.86430000     -36.73180000     -68.31400000
H      -44.51970000     -37.22710000     -69.00870000
