40
Properties=species:S:1:pos:R:3 #=T CELL(abcABC):=T 1.889726e+02=T 90.00000=T Traj:=T positionsangstrom=T Step:=T 0=T Bead:=T pbc="F F F"
C      -46.68530000     -35.56090000     -71.98480000
C      -45.67720000     -34.94950000     -72.79050000
C      -45.91390000     -33.66940000     -73.33340000
C      -47.17380000     -33.01640000     -73.03750000
C      -48.18810000     -33.61230000     -72.29150000
C      -47.91390000     -34.93680000     -71.77170000
H      -46.50430000     -36.56640000     -71.59460000
H      -45.40090000     -33.28380000     -74.19240000
H      -49.16780000     -33.22500000     -72.01270000
H      -48.72790000     -35.41030000     -71.19650000
C      -47.30950000     -31.62510000     -73.66030000
H      -48.37700000     -31.46110000     -73.91890000
H      -46.78800000     -31.63780000     -74.66970000
C      -44.29300000     -35.62410000     -72.90510000
H      -43.87570000     -35.89250000     -71.92410000
H      -44.29870000     -36.59840000     -73.49700000
S      -46.63250000     -30.25530000     -72.64380000
S      -43.03960000     -34.46660000     -73.60530000
C      -44.82710000     -30.59740000     -72.28350000
H      -44.63180000     -31.59450000     -72.70460000
H      -44.12520000     -29.89430000     -72.85230000
C      -41.88720000     -34.45900000     -72.15480000
H      -40.90830000     -34.17020000     -72.44280000
H      -41.72620000     -35.50370000     -71.88310000
C      -42.26990000     -33.42790000     -71.03680000
H      -41.38510000     -33.20310000     -70.37320000
H      -42.56580000     -32.47500000     -71.54860000
C      -44.41540000     -30.74510000     -70.83490000
H      -44.59960000     -29.83260000     -70.23270000
H      -43.36140000     -30.95470000     -70.74140000
C      -45.14880000     -31.80550000     -70.08940000
C      -46.35990000     -31.61660000     -69.51950000
C      -44.58660000     -33.15510000     -69.82860000
H      -46.96780000     -30.65930000     -69.66530000
C      -45.54270000     -33.84080000     -69.08750000
C      -43.40890000     -33.90300000     -70.12920000
C      -43.48360000     -35.18270000     -69.61030000
S      -47.03640000     -33.08310000     -68.69900000
S      -44.98550000     -35.48370000     -68.76830000
H      -42.60200000     -35.86170000     -69.63440000
