40
Properties=species:S:1:pos:R:3 #=T CELL(abcABC):=T 1.889726e+02=T 90.00000=T Traj:=T positionsangstrom=T Step:=T 0=T Bead:=T pbc="F F F"
C      -46.47880000     -35.51210000     -71.90430000
C      -45.56620000     -34.96190000     -72.81140000
C      -45.92690000     -33.73070000     -73.47800000
C      -47.06960000     -33.04830000     -73.05850000
C      -48.00770000     -33.58290000     -72.12820000
C      -47.71880000     -34.81590000     -71.62180000
H      -46.35390000     -36.45030000     -71.35380000
H      -45.17440000     -33.24330000     -74.14230000
H      -48.94220000     -33.03180000     -71.94430000
H      -48.50920000     -35.29410000     -70.95980000
C      -47.37280000     -31.74930000     -73.60910000
H      -48.46770000     -31.56560000     -73.66600000
H      -47.06370000     -31.66160000     -74.61290000
C      -44.32760000     -35.77850000     -73.18640000
H      -44.10690000     -36.53060000     -72.44760000
H      -44.52620000     -36.31220000     -74.12050000
S      -46.59920000     -30.35580000     -72.66070000
S      -42.83400000     -34.76480000     -73.56850000
C      -44.83960000     -30.82940000     -72.42480000
H      -44.72340000     -31.89330000     -72.57390000
H      -44.21200000     -30.25630000     -73.12100000
C      -41.86050000     -34.44530000     -72.00310000
H      -40.80780000     -34.11830000     -72.36140000
H      -41.76250000     -35.38820000     -71.46040000
C      -42.45290000     -33.42650000     -71.01300000
H      -41.61920000     -33.20430000     -70.39000000
H      -42.66610000     -32.48960000     -71.49650000
C      -44.41090000     -30.67290000     -70.92720000
H      -44.73400000     -29.67810000     -70.61540000
H      -43.32200000     -30.78740000     -70.94630000
C      -45.14160000     -31.75810000     -70.16200000
C      -46.32110000     -31.46390000     -69.57860000
C      -44.72960000     -33.11920000     -69.91750000
H      -46.88730000     -30.60800000     -69.87100000
C      -45.66960000     -33.73620000     -69.13030000
C      -43.62690000     -33.94060000     -70.19190000
C      -43.71460000     -35.22930000     -69.65530000
S      -47.05050000     -32.76900000     -68.66260000
S      -45.12630000     -35.35980000     -68.63320000
H      -43.01360000     -36.08010000     -69.70440000
