40
Properties=species:S:1:pos:R:3 #=T CELL(abcABC):=T 1.889726e+02=T 90.00000=T Traj:=T positionsangstrom=T Step:=T 0=T Bead:=T pbc="F F F"
C      -46.30010000     -35.46430000     -71.82700000
C      -45.43430000     -34.96870000     -72.82340000
C      -45.77150000     -33.83260000     -73.52460000
C      -46.90370000     -33.10510000     -73.10760000
C      -47.74870000     -33.57770000     -72.06710000
C      -47.47550000     -34.80020000     -71.49770000
H      -46.09000000     -36.42900000     -71.33440000
H      -45.12790000     -33.34340000     -74.32880000
H      -48.54920000     -32.89440000     -71.75770000
H      -48.02180000     -35.10340000     -70.60680000
C      -47.20130000     -31.82520000     -73.76660000
H      -48.30490000     -31.63320000     -73.81120000
H      -46.76600000     -31.79090000     -74.76400000
C      -44.26460000     -35.88680000     -73.27580000
H      -44.18290000     -36.71510000     -72.57160000
H      -44.53310000     -36.31590000     -74.29260000
S      -46.56240000     -30.28510000     -72.89060000
S      -42.70030000     -35.00550000     -73.53070000
C      -44.82580000     -30.74120000     -72.59540000
H      -44.55790000     -31.71150000     -73.13850000
H      -44.26150000     -30.02300000     -73.11380000
C      -42.10000000     -34.87640000     -71.77960000
H      -41.03120000     -34.89940000     -71.93170000
H      -42.38880000     -35.74820000     -71.22300000
C      -42.51680000     -33.62580000     -71.00080000
H      -41.67120000     -33.36720000     -70.26370000
H      -42.70640000     -32.78150000     -71.65480000
C      -44.45070000     -30.66380000     -71.05880000
H      -44.59620000     -29.70790000     -70.57570000
H      -43.35600000     -30.84470000     -71.01580000
C      -45.23970000     -31.65670000     -70.19070000
C      -46.38020000     -31.31470000     -69.56370000
C      -44.82430000     -33.02050000     -69.79430000
H      -46.77000000     -30.31310000     -69.62700000
C      -45.76170000     -33.59900000     -68.98210000
C      -43.72350000     -33.94630000     -70.12310000
C      -43.88140000     -35.16340000     -69.47350000
S      -47.11890000     -32.57120000     -68.61860000
S      -45.41400000     -35.25590000     -68.62430000
H      -43.21530000     -35.97840000     -69.51110000
