40
Properties=species:S:1:pos:R:3 #=T CELL(abcABC):=T 1.889726e+02=T 90.00000=T Traj:=T positionsangstrom=T Step:=T 0=T Bead:=T pbc="F F F"
C      -44.69700000     -35.00210000     -74.79180000
C      -43.54660000     -34.50570000     -74.12510000
C      -43.09980000     -35.19100000     -73.02460000
C      -43.72400000     -36.29440000     -72.42680000
C      -44.76530000     -36.83450000     -73.14820000
C      -45.25040000     -36.26560000     -74.33420000
H      -45.13910000     -34.49930000     -75.58500000
H      -42.32360000     -34.68530000     -72.39890000
H      -45.24720000     -37.75920000     -72.75260000
H      -45.95890000     -36.82210000     -74.88130000
C      -43.19520000     -36.86970000     -71.12850000
H      -42.14280000     -36.96210000     -71.25360000
H      -43.58140000     -37.85470000     -70.96460000
C      -42.90700000     -33.28020000     -74.67490000
H      -41.92680000     -33.56290000     -75.08640000
H      -43.51960000     -32.89550000     -75.50130000
S      -43.38450000     -35.85560000     -69.64180000
S      -42.46350000     -32.04560000     -73.35440000
C      -45.13930000     -35.13100000     -69.48010000
H      -45.54430000     -34.95760000     -70.47180000
H      -45.80750000     -35.86180000     -68.95860000
C      -43.97330000     -31.49860000     -72.47560000
H      -44.42630000     -30.73100000     -73.19700000
H      -43.58460000     -30.89080000     -71.70760000
C      -45.03870000     -32.43830000     -71.98220000
H      -45.41520000     -32.94880000     -72.83670000
H      -44.59070000     -33.25180000     -71.35970000
C      -45.00540000     -33.78380000     -68.78670000
H      -44.17760000     -33.19910000     -69.29770000
H      -44.81400000     -34.03310000     -67.73280000
C      -46.39100000     -32.93390000     -68.90770000
C      -47.15840000     -32.76380000     -67.83480000
C      -46.76000000     -32.03490000     -70.04050000
H      -47.10550000     -33.25540000     -66.83530000
C      -47.96670000     -31.46610000     -69.78530000
C      -46.27420000     -31.77800000     -71.33680000
C      -47.16640000     -30.95620000     -72.05410000
S      -48.54650000     -31.62720000     -68.17840000
S      -48.54590000     -30.50060000     -71.08340000
H      -47.11810000     -30.76490000     -73.13010000
