40
Properties=species:S:1:pos:R:3 #=T CELL(abcABC):=T 1.889726e+02=T 90.00000=T Traj:=T positionsangstrom=T Step:=T 0=T Bead:=T pbc="F F F"
C      -46.34310000     -35.49760000     -71.90920000
C      -45.38310000     -35.24500000     -72.88370000
C      -45.41900000     -34.12180000     -73.68710000
C      -46.46880000     -33.19520000     -73.58640000
C      -47.46570000     -33.50950000     -72.67890000
C      -47.45830000     -34.64130000     -71.83950000
H      -46.23330000     -36.31060000     -71.22240000
H      -44.67100000     -33.99930000     -74.44400000
H      -48.31740000     -32.84910000     -72.66740000
H      -48.12370000     -34.64860000     -70.98550000
C      -46.41530000     -31.90360000     -74.39060000
H      -47.40640000     -31.64550000     -74.83960000
H      -45.61960000     -31.95990000     -75.09410000
C      -44.22460000     -36.22170000     -73.13370000
H      -44.38510000     -37.06850000     -72.45860000
H      -44.27850000     -36.58660000     -74.13020000
S      -45.89540000     -30.43090000     -73.38240000
S      -42.44390000     -35.68770000     -73.01840000
C      -44.32200000     -30.96840000     -72.58410000
H      -44.08840000     -32.07330000     -72.70810000
H      -43.48120000     -30.44400000     -73.06780000
C      -42.36680000     -35.22870000     -71.20860000
H      -41.32030000     -35.21930000     -70.90490000
H      -42.79100000     -35.99260000     -70.63550000
C      -42.92780000     -33.88040000     -70.75040000
H      -42.18590000     -33.43000000     -70.15420000
H      -43.10280000     -33.25850000     -71.58170000
C      -44.28820000     -30.63730000     -71.07090000
H      -44.55730000     -29.61920000     -71.03720000
H      -43.30830000     -30.73210000     -70.71370000
C      -45.27840000     -31.49470000     -70.26720000
C      -46.41200000     -30.90910000     -69.77550000
C      -45.11100000     -32.81950000     -69.72440000
H      -46.92350000     -29.97810000     -70.02910000
C      -46.26170000     -33.26000000     -68.97670000
C      -44.20130000     -33.92440000     -69.92280000
C      -44.65690000     -35.06070000     -69.21720000
S      -47.32980000     -31.93990000     -68.63020000
S      -46.08650000     -34.81830000     -68.18890000
H      -44.22410000     -36.08600000     -69.22540000
