40
Properties=species:S:1:pos:R:3 #=T CELL(abcABC):=T 1.889726e+02=T 90.00000=T Traj:=T positionsangstrom=T Step:=T 0=T Bead:=T pbc="F F F"
C      -46.55530000     -35.74240000     -72.19650000
C      -45.27330000     -35.62980000     -72.71180000
C      -44.99080000     -34.42110000     -73.36090000
C      -45.92190000     -33.47620000     -73.72490000
C      -47.19520000     -33.65470000     -73.22680000
C      -47.49410000     -34.78230000     -72.50050000
H      -46.89820000     -36.57810000     -71.59220000
H      -43.95330000     -34.31270000     -73.71090000
H      -48.06420000     -32.93470000     -73.38170000
H      -48.41400000     -34.80740000     -71.84680000
C      -45.58910000     -32.33180000     -74.57960000
H      -46.34230000     -32.10210000     -75.34000000
H      -44.62410000     -32.38680000     -74.98810000
C      -44.22500000     -36.70450000     -72.49510000
H      -44.43830000     -37.27780000     -71.57950000
H      -44.21660000     -37.39870000     -73.31400000
S      -45.52460000     -30.81280000     -73.46100000
S      -42.54130000     -35.95170000     -72.32270000
C      -43.89900000     -30.93900000     -72.52290000
H      -43.49340000     -31.95750000     -72.68370000
H      -43.09590000     -30.29730000     -72.93890000
C      -42.55360000     -35.24410000     -70.62100000
H      -41.48540000     -35.18260000     -70.26600000
H      -43.01790000     -36.01440000     -70.00990000
C      -43.13520000     -33.80230000     -70.31710000
H      -42.54320000     -33.43990000     -69.43010000
H      -42.89620000     -33.08590000     -71.05550000
C      -43.92620000     -30.74070000     -70.98690000
H      -43.92820000     -29.60590000     -70.82410000
H      -42.94450000     -31.04930000     -70.56700000
C      -45.17990000     -31.26120000     -70.30450000
C      -46.22540000     -30.48130000     -69.93360000
C      -45.36470000     -32.63120000     -69.79010000
H      -46.36920000     -29.42600000     -70.16200000
C      -46.54910000     -32.78130000     -69.10550000
C      -44.57470000     -33.81670000     -69.86150000
C      -45.11660000     -34.79490000     -69.05820000
S      -47.53180000     -31.37420000     -69.18940000
S      -46.73370000     -34.41560000     -68.46480000
H      -44.68900000     -35.75770000     -68.95160000
