40
Properties=species:S:1:pos:R:3 #=T CELL(abcABC):=T 1.889726e+02=T 90.00000=T Traj:=T positionsangstrom=T Step:=T 0=T Bead:=T pbc="F F F"
C      -46.43640000     -35.71290000     -72.20790000
C      -45.11530000     -35.59780000     -72.58870000
C      -44.81940000     -34.43360000     -73.29230000
C      -45.77530000     -33.52580000     -73.72560000
C      -47.08680000     -33.75810000     -73.40090000
C      -47.45450000     -34.86810000     -72.66050000
H      -46.71460000     -36.59300000     -71.60190000
H      -43.87380000     -34.42440000     -73.75470000
H      -47.82380000     -33.07840000     -73.75780000
H      -48.48830000     -34.97030000     -72.37110000
C      -45.48110000     -32.36190000     -74.65670000
H      -46.30010000     -32.12830000     -75.27780000
H      -44.63010000     -32.60720000     -75.32590000
C      -44.14610000     -36.73730000     -72.22660000
H      -44.73930000     -37.33920000     -71.52990000
H      -43.82100000     -37.36210000     -73.06340000
S      -45.12530000     -30.84480000     -73.66890000
S      -42.47100000     -36.12980000     -71.57980000
C      -43.69530000     -31.25240000     -72.52260000
H      -43.66870000     -32.34420000     -72.48970000
H      -42.76530000     -30.79970000     -72.88670000
C      -42.57650000     -35.33080000     -69.89120000
H      -41.52700000     -35.27160000     -69.64070000
H      -43.17390000     -35.94150000     -69.15130000
C      -43.21430000     -33.95120000     -70.00860000
H      -42.80600000     -33.17640000     -69.40040000
H      -42.93960000     -33.60210000     -71.05070000
C      -43.96440000     -30.76440000     -71.06850000
H      -43.92290000     -29.70090000     -71.21190000
H      -43.02860000     -30.99990000     -70.50370000
C      -45.16740000     -31.19040000     -70.32270000
C      -46.20730000     -30.33210000     -70.15820000
C      -45.47340000     -32.53480000     -69.89250000
H      -46.21970000     -29.29960000     -70.40730000
C      -46.75590000     -32.64710000     -69.32490000
C      -44.69940000     -33.80250000     -69.77880000
C      -45.53240000     -34.85320000     -69.36860000
S      -47.65080000     -31.11350000     -69.46350000
S      -47.13930000     -34.24970000     -68.80470000
H      -45.22330000     -35.87080000     -69.10660000
