40
Properties=species:S:1:pos:R:3 #=T CELL(abcABC):=T 1.889726e+02=T 90.00000=T Traj:=T positionsangstrom=T Step:=T 0=T Bead:=T pbc="F F F"
C      -46.53530000     -35.66860000     -72.06160000
C      -45.18900000     -35.69050000     -72.37000000
C      -44.76660000     -34.62760000     -73.18810000
C      -45.54150000     -33.59470000     -73.68810000
C      -46.87120000     -33.61190000     -73.25520000
C      -47.35970000     -34.62910000     -72.46620000
H      -46.86460000     -36.46600000     -71.45810000
H      -43.73190000     -34.62420000     -73.62330000
H      -47.55340000     -32.88190000     -73.75250000
H      -48.42820000     -34.67500000     -72.25000000
C      -44.97300000     -32.45410000     -74.65810000
H      -45.72260000     -32.18910000     -75.47080000
H      -44.16710000     -32.78430000     -75.25610000
C      -44.30520000     -36.78310000     -71.75250000
H      -44.72330000     -37.22660000     -70.82480000
H      -44.16600000     -37.60370000     -72.49490000
S      -44.80580000     -30.92440000     -73.70560000
S      -42.58510000     -36.14520000     -71.49060000
C      -43.52120000     -31.31140000     -72.44240000
H      -43.51410000     -32.38520000     -72.31070000
H      -42.56380000     -30.90860000     -72.78530000
C      -42.77550000     -35.27680000     -69.80440000
H      -41.79260000     -35.27110000     -69.32380000
H      -43.35940000     -35.87710000     -69.10700000
C      -43.34270000     -33.86540000     -69.82070000
H      -42.92450000     -33.36080000     -68.92840000
H      -43.03420000     -33.38080000     -70.72700000
C      -43.80150000     -30.74240000     -70.95990000
H      -43.77780000     -29.68290000     -71.15590000
H      -42.96220000     -31.08870000     -70.46690000
C      -45.15190000     -31.26410000     -70.49870000
C      -46.26410000     -30.38980000     -70.49270000
C      -45.51020000     -32.51430000     -69.95800000
H      -46.27000000     -29.40620000     -70.85670000
C      -46.86720000     -32.63610000     -69.68020000
C      -44.83630000     -33.74220000     -69.74210000
C      -45.71140000     -34.72400000     -69.22900000
S      -47.77040000     -31.23330000     -69.95450000
S      -47.35120000     -34.08270000     -68.84210000
H      -45.41160000     -35.70590000     -68.85350000
