40
Properties=species:S:1:pos:R:3 #=T CELL(abcABC):=T 1.889726e+02=T 90.00000=T Traj:=T positionsangstrom=T Step:=T 0=T Bead:=T pbc="F F F"
C      -44.56630000     -35.13430000     -74.90830000
C      -43.53790000     -34.50340000     -74.14790000
C      -43.12960000     -35.06310000     -72.96570000
C      -43.71940000     -36.18050000     -72.45090000
C      -44.77300000     -36.76160000     -73.09470000
C      -45.18470000     -36.28680000     -74.38170000
H      -44.70260000     -34.77440000     -75.87730000
H      -42.29860000     -34.64110000     -72.40220000
H      -45.31320000     -37.56050000     -72.62870000
H      -46.07710000     -36.63350000     -74.85550000
C      -43.27000000     -36.86490000     -71.16040000
H      -42.19630000     -37.24800000     -71.31250000
H      -43.86030000     -37.75960000     -70.91720000
C      -42.96930000     -33.20910000     -74.67160000
H      -41.98240000     -33.28170000     -75.19940000
H      -43.67300000     -32.71040000     -75.33930000
S      -43.37030000     -35.79210000     -69.61000000
S      -42.58110000     -31.99010000     -73.36640000
C      -45.02860000     -35.09140000     -69.78900000
H      -45.23090000     -34.70190000     -70.79210000
H      -45.83060000     -35.81730000     -69.57910000
C      -44.35450000     -31.41710000     -72.88020000
H      -44.93850000     -31.23850000     -73.75270000
H      -44.24160000     -30.50060000     -72.29150000
C      -44.96470000     -32.43150000     -71.89230000
H      -45.16760000     -33.41200000     -72.37000000
H      -44.16330000     -32.67810000     -71.18050000
C      -45.16960000     -33.97920000     -68.77190000
H      -44.34290000     -33.27700000     -68.91700000
H      -45.08350000     -34.19760000     -67.69820000
C      -46.45820000     -33.07690000     -68.86440000
C      -47.29550000     -32.90070000     -67.81990000
C      -46.74220000     -32.20220000     -69.96530000
H      -47.20790000     -33.64980000     -67.05200000
C      -47.90430000     -31.45630000     -69.72280000
C      -46.19400000     -31.88650000     -71.29530000
C      -47.07190000     -31.03590000     -71.98580000
S      -48.51780000     -31.71090000     -68.03020000
S      -48.34520000     -30.36860000     -71.05040000
H      -46.84250000     -30.77190000     -73.05410000
