40
Properties=species:S:1:pos:R:3 #=T CELL(abcABC):=T 1.889726e+02=T 90.00000=T Traj:=T positionsangstrom=T Step:=T 0=T Bead:=T pbc="F F F"
C      -46.59750000     -35.26980000     -72.05460000
C      -45.25800000     -35.41830000     -72.29510000
C      -44.62490000     -34.54800000     -73.16900000
C      -45.33940000     -33.46260000     -73.74580000
C      -46.67950000     -33.29110000     -73.35520000
C      -47.35970000     -34.22320000     -72.58200000
H      -47.13680000     -36.00770000     -71.44680000
H      -43.62650000     -34.83500000     -73.48170000
H      -47.18700000     -32.51380000     -73.75900000
H      -48.41440000     -34.04620000     -72.36490000
C      -44.63860000     -32.54450000     -74.65970000
H      -45.38350000     -32.15740000     -75.37000000
H      -43.89440000     -33.02750000     -75.32060000
C      -44.60180000     -36.65080000     -71.69630000
H      -45.15020000     -37.17730000     -70.91080000
H      -44.41330000     -37.39250000     -72.38650000
S      -44.11480000     -30.98230000     -73.83940000
S      -42.90950000     -36.36590000     -71.00140000
C      -43.14660000     -31.49110000     -72.32990000
H      -43.08390000     -32.58510000     -72.29440000
H      -42.19760000     -31.00230000     -72.28190000
C      -43.02110000     -35.42390000     -69.35100000
H      -41.95290000     -35.36720000     -69.03920000
H      -43.54970000     -36.04480000     -68.67010000
C      -43.50380000     -33.93990000     -69.47810000
H      -43.09040000     -33.40960000     -68.62460000
H      -43.15790000     -33.56010000     -70.38290000
C      -43.78660000     -31.04380000     -71.05010000
H      -43.85460000     -29.95500000     -70.88740000
H      -43.26140000     -31.47070000     -70.16630000
C      -45.27020000     -31.46380000     -70.83650000
C      -46.35030000     -30.69840000     -71.19110000
C      -45.68430000     -32.60090000     -70.00580000
H      -46.17870000     -29.75860000     -71.71500000
C      -47.05540000     -32.58650000     -69.75220000
C      -44.97970000     -33.70860000     -69.42180000
C      -45.80230000     -34.52570000     -68.71310000
S      -47.88130000     -31.29640000     -70.56260000
S      -47.46480000     -33.97720000     -68.81140000
H      -45.46570000     -35.26720000     -68.01980000
