40
Properties=species:S:1:pos:R:3 #=T CELL(abcABC):=T 1.889726e+02=T 90.00000=T Traj:=T positionsangstrom=T Step:=T 0=T Bead:=T pbc="F F F"
C      -46.74750000     -35.11900000     -72.12060000
C      -45.37030000     -35.35270000     -72.26070000
C      -44.70290000     -34.57030000     -73.19840000
C      -45.26400000     -33.49460000     -73.91570000
C      -46.65680000     -33.33580000     -73.74790000
C      -47.34210000     -34.16090000     -72.88380000
H      -47.22010000     -35.71000000     -71.35870000
H      -43.61070000     -34.65730000     -73.35450000
H      -47.24700000     -32.51400000     -74.22780000
H      -48.43670000     -34.06420000     -72.89000000
C      -44.48840000     -32.60440000     -74.83240000
H      -45.06090000     -32.20900000     -75.66920000
H      -43.59070000     -33.10310000     -75.15980000
C      -44.69720000     -36.47170000     -71.38490000
H      -45.29250000     -36.70140000     -70.47130000
H      -44.62580000     -37.37690000     -72.06910000
S      -43.95210000     -30.99570000     -73.94460000
S      -42.88800000     -36.20980000     -70.90690000
C      -43.30430000     -31.63230000     -72.35490000
H      -43.43740000     -32.75120000     -72.27850000
H      -42.20620000     -31.67190000     -72.39460000
C      -42.95650000     -35.31490000     -69.18620000
H      -41.92030000     -35.17530000     -68.89800000
H      -43.59420000     -35.87580000     -68.41550000
C      -43.52980000     -33.92690000     -69.29470000
H      -43.09440000     -33.30270000     -68.45060000
H      -43.15020000     -33.43250000     -70.22530000
C      -43.87580000     -30.99230000     -71.09760000
H      -43.79720000     -29.92190000     -71.19500000
H      -43.11000000     -31.26160000     -70.34280000
C      -45.26670000     -31.52940000     -70.77880000
C      -46.37900000     -30.87010000     -71.27420000
C      -45.61090000     -32.65060000     -69.97370000
H      -46.29660000     -29.96610000     -71.78030000
C      -46.99540000     -32.68570000     -69.77010000
C      -45.01730000     -33.72950000     -69.29190000
C      -45.87010000     -34.49680000     -68.54660000
S      -47.89370000     -31.44060000     -70.53690000
S      -47.48090000     -33.97320000     -68.73990000
H      -45.78720000     -35.39880000     -67.99870000
