40
Properties=species:S:1:pos:R:3 #=T CELL(abcABC):=T 1.889726e+02=T 90.00000=T Traj:=T positionsangstrom=T Step:=T 0=T Bead:=T pbc="F F F"
C      -45.70880000     -31.30430000     -68.36360000
C      -44.50220000     -31.15590000     -69.06840000
C      -43.58090000     -32.26400000     -69.02610000
C      -43.92040000     -33.48520000     -68.34270000
C      -45.17380000     -33.56670000     -67.69090000
C      -46.07990000     -32.51390000     -67.74150000
H      -46.44000000     -30.47700000     -68.50940000
H      -42.57450000     -32.39530000     -69.50440000
H      -45.40870000     -34.58630000     -67.25510000
H      -47.12390000     -32.50620000     -67.30150000
C      -42.91040000     -34.58970000     -68.25280000
H      -43.15750000     -35.39150000     -67.56030000
H      -41.95160000     -34.07940000     -67.92930000
C      -44.07930000     -29.82380000     -69.65660000
H      -44.90210000     -29.13540000     -69.41300000
H      -43.21070000     -29.38390000     -69.06010000
S      -42.70390000     -35.31450000     -69.94430000
S      -43.63430000     -29.91830000     -71.38180000
C      -44.35930000     -35.95420000     -70.33030000
H      -44.32020000     -36.70190000     -71.22420000
H      -44.67810000     -36.49850000     -69.43270000
C      -45.17780000     -30.49530000     -72.17190000
H      -45.08530000     -30.25220000     -73.31780000
H      -45.96030000     -29.87480000     -71.71220000
C      -45.48130000     -31.95720000     -71.89090000
H      -44.57770000     -32.45650000     -71.68100000
H      -46.07730000     -32.03450000     -70.90650000
C      -45.48860000     -34.93090000     -70.59020000
H      -45.15510000     -33.88360000     -70.64340000
H      -46.13310000     -34.94500000     -69.72640000
C      -46.20730000     -35.21220000     -71.95170000
C      -46.62210000     -36.47330000     -72.34010000
C      -46.42690000     -34.18120000     -72.88330000
H      -46.38460000     -37.41470000     -71.79830000
C      -47.05240000     -34.64390000     -74.03310000
C      -46.20160000     -32.78890000     -72.98370000
C      -46.81560000     -32.21290000     -74.03890000
S      -47.39960000     -36.41570000     -73.91800000
S      -47.56800000     -33.36270000     -75.15390000
H      -46.83640000     -31.14340000     -74.20230000
