40
Properties=species:S:1:pos:R:3 #=T CELL(abcABC):=T 1.889726e+02=T 90.00000=T Traj:=T positionsangstrom=T Step:=T 0=T Bead:=T pbc="F F F"
C      -43.55670000     -31.64280000     -74.72450000
C      -42.79240000     -31.98750000     -73.66490000
C      -43.03990000     -31.42370000     -72.34070000
C      -43.99010000     -30.36740000     -72.27040000
C      -44.64500000     -29.87980000     -73.39500000
C      -44.47050000     -30.58700000     -74.57040000
H      -43.37660000     -32.21920000     -75.73260000
H      -42.61630000     -31.84830000     -71.50790000
H      -45.42810000     -29.11820000     -73.27510000
H      -45.13750000     -30.32990000     -75.40600000
C      -44.22200000     -29.68520000     -70.92850000
H      -44.43290000     -28.60060000     -70.99950000
H      -43.40780000     -29.83810000     -70.15660000
C      -41.79120000     -33.11950000     -73.79840000
H      -41.80340000     -33.62560000     -74.79040000
H      -40.73520000     -32.91110000     -73.68490000
S      -45.75680000     -30.45270000     -70.04890000
S      -42.07410000     -34.47870000     -72.47390000
C      -45.06700000     -31.65010000     -68.75550000
H      -44.02950000     -31.33860000     -68.41320000
H      -45.69680000     -31.37770000     -67.82310000
C      -43.88460000     -34.88240000     -72.71410000
H      -44.08250000     -35.15790000     -73.76600000
H      -44.46640000     -33.90670000     -72.64990000
C      -44.28090000     -35.81920000     -71.58260000
H      -44.01030000     -36.83630000     -71.77050000
H      -43.70240000     -35.48380000     -70.69150000
C      -45.04880000     -33.10790000     -69.30820000
H      -44.31780000     -33.70690000     -68.68560000
H      -44.48640000     -33.08670000     -70.17020000
C      -46.33790000     -33.80290000     -69.42080000
C      -47.50310000     -33.36830000     -68.77860000
C      -46.48460000     -35.04540000     -70.18240000
H      -47.57220000     -32.69000000     -67.96580000
C      -47.83060000     -35.50700000     -70.00680000
C      -45.76290000     -35.86990000     -71.18670000
C      -46.62410000     -36.83160000     -71.69170000
S      -48.83020000     -34.52450000     -69.02620000
S      -48.26390000     -36.77990000     -71.21730000
H      -46.30000000     -37.59010000     -72.42120000
