40
Properties=species:S:1:pos:R:3 #=T CELL(abcABC):=T 1.889726e+02=T 90.00000=T Traj:=T positionsangstrom=T Step:=T 0=T Bead:=T pbc="F F F"
C      -46.13100000     -35.83720000     -71.74380000
C      -44.76580000     -35.79310000     -71.61910000
C      -43.94730000     -35.08350000     -72.56470000
C      -44.56880000     -34.29390000     -73.48630000
C      -45.98610000     -34.35400000     -73.62740000
C      -46.68480000     -35.15840000     -72.77070000
H      -46.64880000     -36.47700000     -71.01830000
H      -42.86260000     -35.13230000     -72.45710000
H      -46.47960000     -33.70150000     -74.43750000
H      -47.75720000     -35.02510000     -72.95470000
C      -43.79880000     -33.39440000     -74.41440000
H      -44.11520000     -33.35360000     -75.48180000
H      -42.74360000     -33.73870000     -74.49060000
C      -44.06560000     -36.55040000     -70.49390000
H      -44.81370000     -36.79520000     -69.67650000
H      -43.67380000     -37.49100000     -70.87820000
S      -43.74540000     -31.59540000     -73.88230000
S      -42.76260000     -35.56860000     -69.62680000
C      -43.22600000     -31.65390000     -72.06300000
H      -43.49110000     -32.62570000     -71.74130000
H      -42.21750000     -31.41140000     -71.97440000
C      -43.63080000     -34.53910000     -68.40240000
H      -42.81530000     -34.21110000     -67.74120000
H      -44.45080000     -35.04720000     -67.83460000
C      -44.13550000     -33.23160000     -69.04620000
H      -44.02040000     -32.35790000     -68.33470000
H      -43.53640000     -33.02460000     -69.96030000
C      -44.10130000     -30.65650000     -71.31820000
H      -44.12340000     -29.65640000     -71.65280000
H      -43.80880000     -30.50970000     -70.27510000
C      -45.57680000     -31.21000000     -71.24370000
C      -46.55500000     -30.48050000     -71.86170000
C      -46.06870000     -32.28860000     -70.48290000
H      -46.37360000     -29.55420000     -72.36190000
C      -47.43750000     -32.50890000     -70.70260000
C      -45.57700000     -33.20970000     -69.48840000
C      -46.52850000     -34.00610000     -69.00160000
S      -48.13680000     -31.23660000     -71.71130000
S      -48.08980000     -33.73440000     -69.67990000
H      -46.37600000     -34.75720000     -68.19930000
