40
Properties=species:S:1:pos:R:3 #=T CELL(abcABC):=T 1.889726e+02=T 90.00000=T Traj:=T positionsangstrom=T Step:=T 0=T Bead:=T pbc="F F F"
C      -45.88640000     -36.09210000     -71.43680000
C      -44.51250000     -35.88270000     -71.36670000
C      -43.91200000     -35.06060000     -72.35700000
C      -44.67310000     -34.30580000     -73.30120000
C      -46.02560000     -34.54580000     -73.36540000
C      -46.66750000     -35.34680000     -72.42190000
H      -46.56100000     -36.69110000     -70.76610000
H      -42.82690000     -35.05930000     -72.44290000
H      -46.69680000     -34.12120000     -74.13850000
H      -47.70730000     -35.60180000     -72.42590000
C      -43.95020000     -33.55070000     -74.31790000
H      -44.64160000     -33.29770000     -75.11080000
H      -43.02660000     -33.99600000     -74.77600000
C      -43.63340000     -36.48480000     -70.26390000
H      -44.24610000     -37.12100000     -69.56740000
H      -42.80740000     -37.03270000     -70.66490000
S      -43.58280000     -31.77280000     -73.76040000
S      -42.70560000     -35.21800000     -69.26670000
C      -43.11710000     -31.74870000     -71.96500000
H      -43.29330000     -32.76070000     -71.60040000
H      -42.03570000     -31.30260000     -71.82570000
C      -44.04630000     -34.44870000     -68.15890000
H      -43.49110000     -34.14950000     -67.25170000
H      -44.83700000     -35.16370000     -68.03560000
C      -44.56640000     -33.13600000     -68.73550000
H      -44.47770000     -32.34490000     -67.93810000
H      -43.80470000     -32.64870000     -69.33930000
C      -44.04290000     -30.80580000     -71.11000000
H      -43.75520000     -29.81650000     -71.46740000
H      -43.81660000     -30.95960000     -70.01760000
C      -45.53240000     -31.09760000     -71.27030000
C      -46.32380000     -30.59910000     -72.29140000
C      -46.19160000     -32.13050000     -70.56310000
H      -46.22090000     -29.72190000     -72.91310000
C      -47.56630000     -32.26110000     -70.92730000
C      -45.83270000     -33.08690000     -69.49250000
C      -46.88220000     -33.97360000     -69.23440000
S      -47.86590000     -31.32370000     -72.43820000
S      -48.33530000     -33.65270000     -70.17530000
H      -46.98530000     -34.75360000     -68.51400000
