40
Properties=species:S:1:pos:R:3 #=T CELL(abcABC):=T 1.889726e+02=T 90.00000=T Traj:=T positionsangstrom=T Step:=T 0=T Bead:=T pbc="F F F"
C      -46.16900000     -31.34370000     -68.06020000
C      -45.05800000     -31.12640000     -69.00220000
C      -43.89390000     -31.86730000     -68.92980000
C      -43.79640000     -32.97450000     -68.11730000
C      -44.91840000     -33.28060000     -67.31380000
C      -45.97860000     -32.44300000     -67.19880000
H      -47.07770000     -30.75530000     -68.19260000
H      -43.01490000     -31.62550000     -69.59810000
H      -44.85110000     -34.03230000     -66.54720000
H      -46.77430000     -32.64270000     -66.50980000
C      -42.72710000     -34.09520000     -68.37960000
H      -42.90460000     -34.91820000     -67.62030000
H      -41.69480000     -33.69720000     -68.22480000
C      -45.22310000     -29.92770000     -69.87260000
H      -46.22780000     -29.93110000     -70.13750000
H      -45.23610000     -29.01500000     -69.21940000
S      -42.79440000     -34.88950000     -70.07040000
S      -44.10580000     -29.74630000     -71.24890000
C      -44.45570000     -35.80280000     -70.02220000
H      -44.27310000     -36.62540000     -70.69770000
H      -44.45320000     -36.24880000     -69.02820000
C      -44.71160000     -30.82890000     -72.57760000
H      -43.99760000     -30.66310000     -73.41780000
H      -45.72270000     -30.46970000     -72.97810000
C      -44.83640000     -32.30960000     -72.15220000
H      -43.84830000     -32.76390000     -72.01630000
H      -45.31830000     -32.38680000     -71.18490000
C      -45.74280000     -35.09770000     -70.36940000
H      -45.72700000     -34.07330000     -70.07870000
H      -46.47840000     -35.57760000     -69.65700000
C      -46.24290000     -35.32800000     -71.82460000
C      -46.99990000     -36.40800000     -72.15880000
C      -46.25160000     -34.36960000     -72.94460000
H      -47.35710000     -37.28510000     -71.58820000
C      -47.01620000     -34.80160000     -74.04450000
C      -45.61600000     -33.09640000     -73.19310000
C      -45.76140000     -32.76500000     -74.48070000
S      -47.69420000     -36.39110000     -73.81820000
S      -46.84440000     -33.82270000     -75.51290000
H      -45.43440000     -31.87150000     -74.96470000
