40
Properties=species:S:1:pos:R:3 #=T CELL(abcABC):=T 1.889726e+02=T 90.00000=T Traj:=T positionsangstrom=T Step:=T 0=T Bead:=T pbc="F F F"
C      -45.49780000     -36.67820000     -71.33670000
C      -44.29640000     -36.17780000     -70.79760000
C      -43.43150000     -35.45070000     -71.65730000
C      -43.71690000     -35.19460000     -73.03290000
C      -44.92110000     -35.72160000     -73.48280000
C      -45.76070000     -36.50250000     -72.67390000
H      -46.11820000     -37.30140000     -70.61090000
H      -42.55560000     -35.19460000     -71.17340000
H      -45.15850000     -35.56430000     -74.50790000
H      -46.51040000     -37.06920000     -73.20340000
C      -42.78910000     -34.47930000     -73.89350000
H      -42.81030000     -35.00040000     -74.86540000
H      -41.75590000     -34.53720000     -73.55600000
C      -43.87770000     -36.60610000     -69.41990000
H      -44.72400000     -37.21710000     -69.01780000
H      -42.96490000     -37.17210000     -69.42150000
S      -43.26900000     -32.65630000     -73.98820000
S      -43.55880000     -35.13730000     -68.36520000
C      -43.18540000     -32.10150000     -72.17700000
H      -43.45990000     -32.96170000     -71.62600000
H      -42.06660000     -31.89440000     -71.99950000
C      -45.18320000     -34.22970000     -68.40380000
H      -45.69980000     -34.05160000     -67.44650000
H      -45.93910000     -34.68150000     -69.12200000
C      -44.88540000     -32.86560000     -69.00610000
H      -44.47970000     -32.19570000     -68.19160000
H      -44.15360000     -32.93760000     -69.82780000
C      -43.99140000     -30.86400000     -71.82320000
H      -43.61690000     -29.97590000     -72.34390000
H      -43.70310000     -30.69670000     -70.76690000
C      -45.49530000     -31.03630000     -71.89510000
C      -46.23530000     -30.48290000     -72.91970000
C      -46.28460000     -31.75320000     -70.91720000
H      -45.86350000     -30.10100000     -73.92050000
C      -47.68590000     -31.57910000     -71.24180000
C      -46.15930000     -32.34610000     -69.66230000
C      -47.35980000     -32.65800000     -69.10270000
S      -47.97850000     -30.80950000     -72.76960000
S      -48.72640000     -32.38940000     -70.16470000
H      -47.51200000     -33.14750000     -68.11840000
