40
Properties=species:S:1:pos:R:3 #=T CELL(abcABC):=T 1.889726e+02=T 90.00000=T Traj:=T positionsangstrom=T Step:=T 0=T Bead:=T pbc="F F F"
C      -45.98270000     -31.12070000     -68.58490000
C      -44.76570000     -30.68910000     -69.11600000
C      -43.64840000     -31.49130000     -68.96100000
C      -43.74490000     -32.75890000     -68.40310000
C      -44.96600000     -33.18460000     -67.84590000
C      -46.14360000     -32.38990000     -67.97610000
H      -46.85500000     -30.44710000     -68.65870000
H      -42.56640000     -31.19100000     -69.31990000
H      -45.00890000     -34.18050000     -67.39720000
H      -47.08410000     -32.67900000     -67.61030000
C      -42.53390000     -33.61050000     -68.49990000
H      -42.50130000     -34.41390000     -67.71780000
H      -41.57830000     -33.02910000     -68.45850000
C      -44.61870000     -29.36740000     -69.82210000
H      -45.08840000     -28.59410000     -69.22680000
H      -43.51710000     -29.12480000     -69.89050000
S      -42.43800000     -34.48560000     -70.14860000
S      -45.19150000     -29.39020000     -71.58220000
C      -43.92510000     -35.61180000     -69.99930000
H      -43.70510000     -36.49610000     -70.57200000
H      -43.90750000     -35.99940000     -68.96690000
C      -45.99700000     -30.98550000     -72.07030000
H      -46.53330000     -30.66510000     -73.02520000
H      -46.79250000     -31.24070000     -71.37940000
C      -45.10540000     -32.22550000     -72.36220000
H      -44.21470000     -31.81340000     -72.95740000
H      -44.71600000     -32.59840000     -71.46150000
C      -45.27030000     -34.98280000     -70.43100000
H      -45.10480000     -33.91890000     -70.52030000
H      -45.91280000     -35.25040000     -69.48580000
C      -45.95610000     -35.50710000     -71.64940000
C      -46.35920000     -36.80480000     -71.85400000
C      -46.14050000     -34.64230000     -72.82250000
H      -46.06600000     -37.71120000     -71.27520000
C      -46.88940000     -35.35760000     -73.74540000
C      -45.95160000     -33.22310000     -73.05690000
C      -46.51910000     -32.96060000     -74.27120000
S      -46.97580000     -37.07540000     -73.47130000
S      -47.24390000     -34.35560000     -75.10470000
H      -46.67880000     -32.03050000     -74.78660000
