40
Properties=species:S:1:pos:R:3 #=T CELL(abcABC):=T 1.889726e+02=T 90.00000=T Traj:=T positionsangstrom=T Step:=T 0=T Bead:=T pbc="F F F"
C      -44.22690000     -35.07350000     -74.88880000
C      -43.25440000     -34.55510000     -74.10070000
C      -42.92770000     -35.15890000     -72.87290000
C      -43.67770000     -36.20490000     -72.45310000
C      -44.66990000     -36.76460000     -73.31430000
C      -44.99040000     -36.21120000     -74.51290000
H      -44.34540000     -34.52890000     -75.82580000
H      -42.09740000     -34.79990000     -72.19200000
H      -45.19080000     -37.61310000     -72.92840000
H      -45.84950000     -36.55770000     -75.10190000
C      -43.31600000     -36.96460000     -71.21760000
H      -42.30350000     -37.38140000     -71.17750000
H      -44.02580000     -37.80020000     -71.13500000
C      -42.45390000     -33.34010000     -74.47440000
H      -41.35440000     -33.46520000     -74.33930000
H      -42.73310000     -32.95660000     -75.43500000
S      -43.44610000     -35.88810000     -69.66440000
S      -42.72570000     -31.91330000     -73.31650000
C      -45.11960000     -35.14060000     -69.80740000
H      -45.49980000     -35.01120000     -70.82420000
H      -45.96580000     -35.70970000     -69.35120000
C      -44.59930000     -31.78820000     -73.25230000
H      -45.12500000     -32.28830000     -74.15060000
H      -44.81410000     -30.71380000     -73.20080000
C      -45.09520000     -32.30310000     -71.91520000
H      -45.16930000     -33.39140000     -71.85500000
H      -44.36380000     -32.10960000     -71.10790000
C      -45.07830000     -33.78630000     -68.99370000
H      -44.14390000     -33.19300000     -69.31410000
H      -44.94900000     -34.06340000     -67.97490000
C      -46.35020000     -32.93630000     -68.95410000
C      -47.14930000     -32.97460000     -67.84500000
C      -46.83070000     -32.05580000     -70.02450000
H      -47.12370000     -33.52280000     -66.88950000
C      -47.98510000     -31.43630000     -69.58910000
C      -46.35340000     -31.71100000     -71.32310000
C      -47.18860000     -30.73830000     -71.84450000
S      -48.54860000     -31.90910000     -68.00970000
S      -48.52210000     -30.26010000     -70.82240000
H      -47.19530000     -30.30510000     -72.84460000
