40
Properties=species:S:1:pos:R:3 #=T CELL(abcABC):=T 1.889726e+02=T 90.00000=T Traj:=T positionsangstrom=T Step:=T 0=T Bead:=T pbc="F F F"
C      -45.28580000     -36.89400000     -71.08320000
C      -44.00960000     -36.43860000     -70.73700000
C      -43.29040000     -35.66980000     -71.59450000
C      -43.70300000     -35.45610000     -72.91430000
C      -44.93700000     -35.97700000     -73.40880000
C      -45.70930000     -36.61300000     -72.38870000
H      -45.91580000     -37.41020000     -70.33390000
H      -42.38120000     -35.34980000     -71.18270000
H      -45.33020000     -35.90720000     -74.35870000
H      -46.66660000     -36.90830000     -72.66610000
C      -43.00630000     -34.44810000     -73.81050000
H      -43.14120000     -34.62160000     -74.92940000
H      -41.96170000     -34.19590000     -73.64690000
C      -43.45740000     -36.71160000     -69.36170000
H      -43.97590000     -37.54550000     -68.76820000
H      -42.44760000     -36.91230000     -69.25380000
S      -43.91600000     -32.83740000     -73.63350000
S      -43.64450000     -35.11680000     -68.40190000
C      -43.09600000     -32.27470000     -72.09320000
H      -43.13820000     -33.09000000     -71.43980000
H      -41.98070000     -32.15030000     -72.29810000
C      -45.24850000     -34.44210000     -69.06520000
H      -46.02060000     -34.92590000     -68.51190000
H      -45.30330000     -34.65470000     -70.14110000
C      -45.25550000     -32.89850000     -68.82100000
H      -45.29610000     -32.67330000     -67.74510000
H      -44.30430000     -32.49520000     -69.05580000
C      -43.73750000     -31.00610000     -71.51890000
H      -43.23970000     -30.15620000     -71.95590000
H      -43.45060000     -30.78030000     -70.44500000
C      -45.30320000     -30.92710000     -71.74480000
C      -45.74980000     -30.41610000     -72.94490000
C      -46.29070000     -31.49960000     -70.88410000
H      -45.36340000     -29.85400000     -73.67130000
C      -47.55510000     -31.47780000     -71.54810000
C      -46.38650000     -32.24460000     -69.61840000
C      -47.67200000     -32.50620000     -69.24970000
S      -47.56370000     -30.61470000     -73.10690000
S      -48.84500000     -31.95220000     -70.42130000
H      -47.95900000     -33.07350000     -68.36450000
