40
Properties=species:S:1:pos:R:3 #=T CELL(abcABC):=T 1.889726e+02=T 90.00000=T Traj:=T positionsangstrom=T Step:=T 0=T Bead:=T pbc="F F F"
C      -42.52770000     -34.57540000     -70.74410000
C      -42.51170000     -33.40150000     -69.98690000
C      -43.23200000     -33.36770000     -68.74380000
C      -44.10760000     -34.43580000     -68.47850000
C      -44.18610000     -35.61500000     -69.29210000
C      -43.31290000     -35.66710000     -70.42900000
H      -42.05930000     -34.66680000     -71.78820000
H      -43.21410000     -32.50260000     -68.05710000
H      -44.90470000     -36.42930000     -69.05610000
H      -43.25790000     -36.61340000     -71.07040000
C      -45.06020000     -34.29380000     -67.34640000
H      -44.44990000     -34.05340000     -66.47560000
H      -45.72400000     -35.10540000     -67.09590000
C      -41.75670000     -32.19460000     -70.62260000
H      -41.91270000     -31.29540000     -70.09240000
H      -40.64800000     -32.45100000     -70.52340000
S      -46.25160000     -32.91410000     -67.71350000
S      -42.22890000     -31.90820000     -72.36440000
C      -46.97340000     -33.71820000     -69.12390000
H      -46.13110000     -34.12800000     -69.73800000
H      -47.70130000     -34.52580000     -68.78810000
C      -43.72190000     -30.79360000     -72.22340000
H      -43.80240000     -30.31990000     -73.19750000
H      -43.50770000     -30.01800000     -71.49200000
C      -44.96210000     -31.56530000     -71.75880000
H      -44.85960000     -31.93120000     -70.75290000
H      -45.88020000     -30.83720000     -71.67050000
C      -47.66770000     -32.69030000     -70.07890000
H      -47.06040000     -31.80560000     -70.31860000
H      -48.63540000     -32.41250000     -69.65350000
C      -47.75690000     -33.25680000     -71.50070000
C      -48.86590000     -33.95430000     -71.91100000
C      -46.73400000     -33.20450000     -72.61110000
H      -49.77800000     -34.16420000     -71.35300000
C      -47.13230000     -33.90320000     -73.72500000
C      -45.46750000     -32.53300000     -72.78630000
C      -45.01000000     -32.80000000     -74.06260000
S      -48.76400000     -34.54470000     -73.59030000
S      -45.93390000     -33.91140000     -75.06740000
H      -44.09770000     -32.40040000     -74.45460000
