40
Properties=species:S:1:pos:R:3 #=T CELL(abcABC):=T 1.889726e+02=T 90.00000=T Traj:=T positionsangstrom=T Step:=T 0=T Bead:=T pbc="F F F"
C      -45.67060000     -37.77340000     -71.33080000
C      -44.60440000     -37.10950000     -70.66130000
C      -43.75160000     -36.25300000     -71.45970000
C      -43.97630000     -36.09540000     -72.81260000
C      -45.03200000     -36.75480000     -73.38560000
C      -45.91940000     -37.63150000     -72.67730000
H      -46.45050000     -38.22960000     -70.68590000
H      -42.97370000     -35.72210000     -70.85780000
H      -45.13130000     -36.68860000     -74.41110000
H      -46.69840000     -38.26410000     -73.13570000
C      -43.05530000     -35.12200000     -73.46390000
H      -42.90610000     -35.37080000     -74.54020000
H      -42.15450000     -35.24470000     -72.84340000
C      -44.52410000     -37.16170000     -69.13000000
H      -45.45620000     -37.69270000     -68.78160000
H      -43.63880000     -37.75270000     -68.82250000
S      -43.36800000     -33.25200000     -73.42870000
S      -44.64860000     -35.42150000     -68.36620000
C      -42.87710000     -32.66640000     -71.69140000
H      -43.28320000     -33.34610000     -71.00380000
H      -41.83390000     -32.73130000     -71.62770000
C      -45.65250000     -34.44470000     -69.53670000
H      -46.64400000     -34.58350000     -69.21710000
H      -45.46570000     -34.85100000     -70.47230000
C      -45.40990000     -33.01820000     -69.27740000
H      -45.56070000     -32.75890000     -68.23140000
H      -44.42300000     -32.69950000     -69.58910000
C      -43.33580000     -31.22500000     -71.55080000
H      -42.91720000     -30.58010000     -72.25960000
H      -43.20690000     -30.84960000     -70.52510000
C      -44.86350000     -30.89810000     -71.82030000
C      -45.11770000     -29.96510000     -72.73380000
C      -46.03420000     -31.17680000     -71.01210000
H      -44.35740000     -29.48080000     -73.36710000
C      -47.13490000     -30.43180000     -71.52740000
C      -46.37110000     -32.11880000     -69.97790000
C      -47.69870000     -32.01220000     -69.61120000
S      -46.75610000     -29.30430000     -72.79120000
S      -48.59050000     -30.84920000     -70.63720000
H      -48.14050000     -32.59840000     -68.81370000
