40
Properties=species:S:1:pos:R:3 #=T CELL(abcABC):=T 1.889726e+02=T 90.00000=T Traj:=T positionsangstrom=T Step:=T 0=T Bead:=T pbc="F F F"
C      -46.30040000     -36.96160000     -71.49630000
C      -45.18920000     -36.66950000     -70.71040000
C      -43.98460000     -36.28080000     -71.38440000
C      -43.92050000     -36.32830000     -72.74230000
C      -45.02710000     -36.78190000     -73.52200000
C      -46.23540000     -37.14190000     -72.87690000
H      -47.11310000     -37.44720000     -70.96650000
H      -43.09300000     -35.94110000     -70.84750000
H      -44.97470000     -36.75950000     -74.55060000
H      -47.05960000     -37.52930000     -73.53020000
C      -42.68190000     -35.75880000     -73.38020000
H      -42.69300000     -36.12610000     -74.44410000
H      -41.72880000     -36.06500000     -72.78160000
C      -45.19790000     -36.80190000     -69.22030000
H      -46.12210000     -37.24030000     -68.72100000
H      -44.37430000     -37.55190000     -69.03810000
S      -42.76330000     -33.84880000     -73.42910000
S      -44.71250000     -35.28860000     -68.25770000
C      -43.23900000     -33.35170000     -71.68230000
H      -44.16450000     -33.84570000     -71.52260000
H      -42.51100000     -33.69560000     -70.98960000
C      -45.73020000     -33.96490000     -69.07020000
H      -46.79440000     -34.20690000     -68.92030000
H      -45.65190000     -34.03640000     -70.12170000
C      -45.44060000     -32.47710000     -68.72490000
H      -45.72580000     -32.27000000     -67.64940000
H      -44.39410000     -32.17840000     -68.85350000
C      -43.38830000     -31.80530000     -71.52520000
H      -42.56240000     -31.23450000     -72.04020000
H      -43.08270000     -31.57480000     -70.51040000
C      -44.77640000     -31.22960000     -71.92780000
C      -45.00210000     -30.47690000     -73.04150000
C      -45.91060000     -31.18990000     -70.99360000
H      -44.31090000     -30.18510000     -73.84410000
C      -46.96660000     -30.49670000     -71.61360000
C      -46.29020000     -31.59830000     -69.67900000
C      -47.63330000     -31.18000000     -69.33800000
S      -46.65390000     -29.87400000     -73.19340000
S      -48.42630000     -30.32570000     -70.66190000
H      -48.09750000     -31.57570000     -68.43280000
