40
Properties=species:S:1:pos:R:3 #=T CELL(abcABC):=T 1.889726e+02=T 90.00000=T Traj:=T positionsangstrom=T Step:=T 0=T Bead:=T pbc="F F F"
C      -46.55620000     -36.68340000     -71.28450000
C      -45.41180000     -36.80150000     -70.54190000
C      -44.17550000     -36.65160000     -71.22570000
C      -44.16590000     -36.32320000     -72.60070000
C      -45.38270000     -36.29850000     -73.35460000
C      -46.55490000     -36.52070000     -72.67610000
H      -47.52140000     -36.61950000     -70.85170000
H      -43.22110000     -36.80780000     -70.71320000
H      -45.39010000     -36.22820000     -74.41550000
H      -47.52990000     -36.32020000     -73.22210000
C      -42.90200000     -35.87050000     -73.27540000
H      -42.84670000     -36.14580000     -74.28850000
H      -42.05720000     -36.19580000     -72.65850000
C      -45.62740000     -36.76840000     -69.07770000
H      -46.70360000     -36.88070000     -68.92870000
H      -45.16050000     -37.55180000     -68.50220000
S      -42.91000000     -33.99620000     -73.34200000
S      -45.01790000     -35.24690000     -68.27100000
C      -42.91940000     -33.53160000     -71.61130000
H      -43.69070000     -34.15970000     -71.05650000
H      -41.96030000     -33.59070000     -71.13400000
C      -46.01800000     -34.00460000     -69.25040000
H      -47.09810000     -34.09790000     -69.02830000
H      -45.92960000     -34.29260000     -70.27540000
C      -45.61350000     -32.62840000     -68.89480000
H      -46.00870000     -32.45020000     -67.90420000
H      -44.57370000     -32.57360000     -68.77850000
C      -43.33340000     -32.03510000     -71.40070000
H      -42.53510000     -31.34050000     -71.66820000
H      -43.37920000     -31.90330000     -70.35970000
C      -44.59350000     -31.46830000     -71.98860000
C      -44.68860000     -30.92320000     -73.24900000
C      -45.77170000     -31.34280000     -71.14650000
H      -43.90230000     -30.75410000     -73.92780000
C      -46.72630000     -30.52310000     -71.78850000
C      -46.11960000     -31.56830000     -69.76130000
C      -47.26200000     -30.87630000     -69.33420000
S      -46.28730000     -30.08090000     -73.43450000
S      -47.91750000     -29.91380000     -70.72400000
H      -47.59700000     -30.83960000     -68.31210000
