40
Properties=species:S:1:pos:R:3 #=T CELL(abcABC):=T 1.889726e+02=T 90.00000=T Traj:=T positionsangstrom=T Step:=T 0=T Bead:=T pbc="F F F"
C      -46.75030000     -36.60980000     -71.43520000
C      -45.60520000     -36.64350000     -70.61220000
C      -44.32620000     -36.42550000     -71.19560000
C      -44.25830000     -36.20530000     -72.56830000
C      -45.44140000     -36.14730000     -73.35280000
C      -46.66770000     -36.40320000     -72.79680000
H      -47.69660000     -36.99360000     -70.98260000
H      -43.45980000     -36.40280000     -70.61950000
H      -45.46300000     -35.92380000     -74.42540000
H      -47.43770000     -36.40520000     -73.52960000
C      -42.91410000     -35.88950000     -73.19170000
H      -42.67670000     -36.39070000     -74.17200000
H      -42.02620000     -36.18190000     -72.54150000
C      -45.61370000     -36.87830000     -69.10920000
H      -46.60410000     -37.25510000     -68.73350000
H      -44.75710000     -37.47800000     -68.78380000
S      -42.95760000     -34.01620000     -73.49640000
S      -45.14610000     -35.29410000     -68.16760000
C      -42.95720000     -33.54540000     -71.67260000
H      -43.74700000     -34.14930000     -71.20090000
H      -42.05650000     -33.96910000     -71.20760000
C      -46.07940000     -33.98370000     -69.03180000
H      -47.13950000     -33.98130000     -68.72140000
H      -46.05260000     -34.20530000     -70.10830000
C      -45.46140000     -32.59620000     -68.83550000
H      -45.45510000     -32.36240000     -67.76770000
H      -44.39680000     -32.62720000     -69.16600000
C      -43.12770000     -32.07000000     -71.41850000
H      -42.28010000     -31.63700000     -71.99570000
H      -42.95590000     -31.85760000     -70.35410000
C      -44.47170000     -31.47830000     -71.84580000
C      -44.58090000     -31.02440000     -73.14520000
C      -45.66810000     -31.26620000     -71.04180000
H      -43.91440000     -31.09740000     -73.99390000
C      -46.58430000     -30.44810000     -71.73990000
C      -46.14830000     -31.60670000     -69.72570000
C      -47.38060000     -30.98360000     -69.51490000
S      -45.99870000     -30.05140000     -73.36890000
S      -47.97840000     -30.06210000     -70.79350000
H      -48.08030000     -31.24310000     -68.69850000
