40
Properties=species:S:1:pos:R:3 #=T CELL(abcABC):=T 1.889726e+02=T 90.00000=T Traj:=T positionsangstrom=T Step:=T 0=T Bead:=T pbc="F F F"
C      -46.83290000     -36.57220000     -71.30160000
C      -45.61180000     -36.62440000     -70.55750000
C      -44.41180000     -36.54760000     -71.29570000
C      -44.37180000     -36.26750000     -72.70020000
C      -45.61500000     -36.29560000     -73.37130000
C      -46.83540000     -36.47470000     -72.71750000
H      -47.78570000     -36.55910000     -70.70870000
H      -43.46980000     -36.63960000     -70.81410000
H      -45.65970000     -36.08030000     -74.45790000
H      -47.64870000     -36.36930000     -73.35360000
C      -43.18690000     -35.81310000     -73.49070000
H      -43.35930000     -36.02300000     -74.54700000
H      -42.30450000     -36.24940000     -73.14110000
C      -45.73830000     -36.88280000     -69.06910000
H      -46.75980000     -37.14170000     -68.85300000
H      -45.11540000     -37.70580000     -68.72690000
S      -42.83590000     -34.01570000     -73.43670000
S      -45.18530000     -35.34390000     -68.07740000
C      -43.16700000     -33.49380000     -71.67630000
H      -44.15640000     -33.78330000     -71.50600000
H      -42.41780000     -34.03950000     -71.03640000
C      -46.11910000     -33.96690000     -68.85250000
H      -47.11510000     -33.83400000     -68.43140000
H      -46.20760000     -34.15380000     -69.92060000
C      -45.36710000     -32.53890000     -68.75220000
H      -45.53860000     -32.05790000     -67.75250000
H      -44.26630000     -32.63700000     -68.99980000
C      -42.99790000     -32.02600000     -71.39980000
H      -42.25750000     -31.62600000     -72.02950000
H      -42.68290000     -31.78850000     -70.34380000
C      -44.27780000     -31.27740000     -71.80370000
C      -44.30800000     -30.63780000     -73.02670000
C      -45.49390000     -31.09030000     -70.98560000
H      -43.55540000     -30.70290000     -73.80170000
C      -46.44550000     -30.42450000     -71.72250000
C      -46.06230000     -31.67580000     -69.75830000
C      -47.33500000     -31.19120000     -69.59920000
S      -45.95970000     -30.00550000     -73.39480000
S      -47.98220000     -30.24760000     -70.96850000
H      -47.96980000     -31.58100000     -68.77710000
