40
Properties=species:S:1:pos:R:3 #=T CELL(abcABC):=T 1.889726e+02=T 90.00000=T Traj:=T positionsangstrom=T Step:=T 0=T Bead:=T pbc="F F F"
C      -42.22190000     -35.33090000     -70.21350000
C      -42.40570000     -33.95530000     -69.97770000
C      -43.20650000     -33.45430000     -68.98190000
C      -44.03960000     -34.36760000     -68.33780000
C      -43.98470000     -35.77500000     -68.70230000
C      -43.03480000     -36.27390000     -69.58640000
H      -41.49180000     -35.62750000     -70.95770000
H      -43.23710000     -32.38280000     -68.66710000
H      -44.76830000     -36.45510000     -68.32690000
H      -43.01820000     -37.33350000     -69.89770000
C      -44.95250000     -33.97410000     -67.17290000
H      -44.39900000     -33.58420000     -66.29440000
H      -45.64990000     -34.76880000     -66.88750000
C      -41.60640000     -33.07320000     -70.81640000
H      -41.51390000     -32.03770000     -70.37860000
H      -40.52110000     -33.31070000     -70.92140000
S      -46.05330000     -32.55190000     -67.71940000
S      -42.14020000     -32.98660000     -72.53020000
C      -46.82520000     -33.35030000     -69.24140000
H      -46.08530000     -33.92960000     -69.76910000
H      -47.61320000     -33.94830000     -68.80270000
C      -43.24640000     -31.46030000     -72.55230000
H      -43.16150000     -31.11860000     -73.60700000
H      -42.81740000     -30.72970000     -71.86570000
C      -44.68360000     -31.78550000     -72.05690000
H      -44.66440000     -32.36100000     -71.15350000
H      -45.15050000     -30.79780000     -71.85670000
C      -47.44330000     -32.26690000     -70.09590000
H      -46.77560000     -31.41630000     -70.20610000
H      -48.36670000     -31.88790000     -69.58860000
C      -47.68830000     -32.74600000     -71.54240000
C      -48.97410000     -33.12120000     -71.83750000
C      -46.81310000     -32.96350000     -72.69100000
H      -49.79480000     -32.89580000     -71.24240000
C      -47.57240000     -33.37630000     -73.78570000
C      -45.48960000     -32.53850000     -73.07820000
C      -45.16810000     -32.79790000     -74.41390000
S      -49.17730000     -33.76530000     -73.45780000
S      -46.55290000     -33.68920000     -75.16080000
H      -44.30890000     -32.52240000     -75.00050000
