40
Properties=species:S:1:pos:R:3 #=T CELL(abcABC):=T 1.889726e+02=T 90.00000=T Traj:=T positionsangstrom=T Step:=T 0=T Bead:=T pbc="F F F"
C      -42.27220000     -35.52220000     -70.26940000
C      -42.46500000     -34.11840000     -70.09170000
C      -43.35870000     -33.64530000     -69.07180000
C      -43.99650000     -34.56810000     -68.29870000
C      -43.75020000     -35.93610000     -68.50740000
C      -42.88400000     -36.43820000     -69.45560000
H      -41.64050000     -35.85810000     -71.07600000
H      -43.67440000     -32.60210000     -68.97390000
H      -44.25330000     -36.58890000     -67.78330000
H      -42.64630000     -37.46670000     -69.42370000
C      -44.97750000     -34.00140000     -67.28170000
H      -44.43470000     -33.66790000     -66.47000000
H      -45.59160000     -34.87820000     -66.87420000
C      -41.55670000     -33.21730000     -70.80190000
H      -41.49380000     -32.24910000     -70.34240000
H      -40.62450000     -33.73480000     -70.85240000
S      -46.08580000     -32.58130000     -67.77940000
S      -41.96840000     -32.73080000     -72.63920000
C      -46.86940000     -33.17850000     -69.37090000
H      -46.09410000     -33.69660000     -69.99460000
H      -47.66140000     -33.94340000     -69.15740000
C      -43.25570000     -31.42960000     -72.57110000
H      -43.41290000     -30.97710000     -73.53330000
H      -43.01200000     -30.60600000     -71.87700000
C      -44.60370000     -31.85110000     -71.95900000
H      -44.49940000     -32.45580000     -70.98350000
H      -45.12410000     -30.90290000     -71.69500000
C      -47.42690000     -32.09210000     -70.23990000
H      -46.56170000     -31.44910000     -70.40640000
H      -48.14180000     -31.47650000     -69.74060000
C      -47.83630000     -32.62060000     -71.56460000
C      -49.06780000     -33.15800000     -71.89040000
C      -46.94120000     -32.81410000     -72.61990000
H      -49.79110000     -33.07240000     -71.09360000
C      -47.61910000     -33.39190000     -73.73120000
C      -45.54980000     -32.51390000     -72.89910000
C      -45.15890000     -32.98880000     -74.15460000
S      -49.28280000     -33.78720000     -73.50850000
S      -46.51080000     -33.52660000     -75.06790000
H      -44.31870000     -32.73030000     -74.74680000
