40
Properties=species:S:1:pos:R:3 #=T CELL(abcABC):=T 1.889726e+02=T 90.00000=T Traj:=T positionsangstrom=T Step:=T 0=T Bead:=T pbc="F F F"
C      -42.18670000     -35.53690000     -70.21840000
C      -42.35890000     -34.13420000     -70.13380000
C      -43.33150000     -33.66450000     -69.20120000
C      -43.99060000     -34.59540000     -68.35140000
C      -43.71970000     -35.92840000     -68.46210000
C      -42.84000000     -36.44760000     -69.37350000
H      -41.50210000     -35.90800000     -70.94520000
H      -43.50770000     -32.65520000     -68.97320000
H      -44.27840000     -36.58770000     -67.81780000
H      -42.65900000     -37.50590000     -69.50750000
C      -45.02150000     -34.12550000     -67.39440000
H      -44.54840000     -33.87490000     -66.39230000
H      -45.69360000     -34.97430000     -67.20280000
C      -41.52450000     -33.10000000     -70.89210000
H      -41.58560000     -32.10050000     -70.39520000
H      -40.50520000     -33.54040000     -70.85440000
S      -46.03460000     -32.64260000     -67.87430000
S      -42.00550000     -32.62570000     -72.62940000
C      -46.63490000     -33.28000000     -69.46090000
H      -45.85620000     -33.66870000     -70.10530000
H      -47.31680000     -34.12690000     -69.31730000
C      -43.28900000     -31.33510000     -72.29750000
H      -43.28340000     -30.70510000     -73.13900000
H      -42.77080000     -30.74910000     -71.50910000
C      -44.68370000     -31.88670000     -71.91390000
H      -44.52660000     -32.60210000     -71.14730000
H      -45.11030000     -31.03350000     -71.47960000
C      -47.50440000     -32.24130000     -70.06620000
H      -47.11350000     -31.17140000     -70.01570000
H      -48.43040000     -32.27110000     -69.56730000
C      -47.87490000     -32.59340000     -71.54660000
C      -49.13160000     -33.08990000     -71.82750000
C      -47.00740000     -32.75820000     -72.66600000
H      -49.84680000     -33.24560000     -70.99390000
C      -47.60280000     -33.45380000     -73.71310000
C      -45.63230000     -32.39860000     -72.99090000
C      -45.15890000     -32.91200000     -74.18170000
S      -49.30540000     -33.74750000     -73.48510000
S      -46.54650000     -33.56700000     -75.07180000
H      -44.18140000     -33.05980000     -74.62130000
