40
Properties=species:S:1:pos:R:3 #=T CELL(abcABC):=T 1.889726e+02=T 90.00000=T Traj:=T positionsangstrom=T Step:=T 0=T Bead:=T pbc="F F F"
C      -42.01970000     -35.39450000     -70.24800000
C      -42.15130000     -34.05420000     -70.07680000
C      -43.09770000     -33.69280000     -69.11590000
C      -43.85220000     -34.63530000     -68.38090000
C      -43.71510000     -35.97290000     -68.60600000
C      -42.84220000     -36.35510000     -69.61550000
H      -41.31630000     -35.76750000     -71.02310000
H      -43.34140000     -32.61610000     -69.06460000
H      -44.43030000     -36.67830000     -68.20540000
H      -42.73380000     -37.39320000     -70.00490000
C      -44.80840000     -34.13830000     -67.35680000
H      -44.26020000     -33.71720000     -66.44530000
H      -45.44200000     -34.92010000     -67.08910000
C      -41.42750000     -32.92380000     -70.88840000
H      -41.40640000     -32.01060000     -70.33790000
H      -40.39420000     -33.12040000     -71.14490000
S      -45.85740000     -32.76840000     -67.85990000
S      -42.25840000     -32.72650000     -72.49290000
C      -46.81410000     -33.39690000     -69.33230000
H      -45.97190000     -33.82060000     -69.96180000
H      -47.41270000     -34.23610000     -69.00520000
C      -43.43130000     -31.31790000     -72.34310000
H      -43.55930000     -30.69650000     -73.28770000
H      -43.09870000     -30.64250000     -71.60130000
C      -44.82100000     -31.71430000     -71.86290000
H      -44.75990000     -32.34990000     -70.94370000
H      -45.44050000     -30.73910000     -71.55090000
C      -47.49920000     -32.27640000     -70.13840000
H      -46.75900000     -31.48390000     -70.20720000
H      -48.34530000     -31.97600000     -69.50050000
C      -47.95390000     -32.70900000     -71.51650000
C      -49.18950000     -33.10840000     -71.91630000
C      -47.04280000     -32.77480000     -72.62210000
H      -50.12700000     -33.08240000     -71.33990000
C      -47.60890000     -33.44520000     -73.71320000
C      -45.61180000     -32.42160000     -72.92190000
C      -45.21080000     -32.85630000     -74.14150000
S      -49.39710000     -33.68510000     -73.55750000
S      -46.51920000     -33.56780000     -75.07320000
H      -44.18130000     -32.78390000     -74.47010000
