40
Properties=species:S:1:pos:R:3 #=T CELL(abcABC):=T 1.889726e+02=T 90.00000=T Traj:=T positionsangstrom=T Step:=T 0=T Bead:=T pbc="F F F"
C      -41.94170000     -35.28780000     -70.37700000
C      -42.04780000     -33.94840000     -70.13500000
C      -43.06650000     -33.58490000     -69.25700000
C      -43.81190000     -34.52170000     -68.60460000
C      -43.68300000     -35.92530000     -68.85990000
C      -42.66110000     -36.28820000     -69.74010000
H      -41.11320000     -35.56190000     -70.97880000
H      -43.15020000     -32.54360000     -68.87420000
H      -44.35690000     -36.61950000     -68.32290000
H      -42.37170000     -37.30260000     -69.90120000
C      -44.81010000     -34.23840000     -67.53020000
H      -44.28650000     -33.92180000     -66.65060000
H      -45.42610000     -35.17100000     -67.16510000
C      -41.30960000     -32.96840000     -71.05310000
H      -41.10920000     -32.05940000     -70.49430000
H      -40.41720000     -33.49160000     -71.47370000
S      -45.88800000     -32.82270000     -67.89100000
S      -42.33280000     -32.69970000     -72.53490000
C      -46.66600000     -33.50280000     -69.42670000
H      -45.97640000     -33.92420000     -70.16520000
H      -47.39640000     -34.32700000     -69.20520000
C      -43.49720000     -31.35280000     -72.12650000
H      -43.66270000     -30.67340000     -72.93150000
H      -43.09710000     -30.76050000     -71.25160000
C      -44.88350000     -31.73030000     -71.66990000
H      -44.70260000     -32.62910000     -70.99910000
H      -45.44250000     -30.92660000     -71.22460000
C      -47.64030000     -32.45700000     -70.10060000
H      -47.20160000     -31.41350000     -70.11910000
H      -48.49180000     -32.43960000     -69.36500000
C      -48.07080000     -32.87350000     -71.47320000
C      -49.28750000     -33.44090000     -71.80980000
C      -47.12010000     -32.74060000     -72.57170000
H      -50.09190000     -33.82080000     -71.24380000
C      -47.68710000     -33.29800000     -73.74200000
C      -45.74110000     -32.29170000     -72.72290000
C      -45.33120000     -32.40880000     -73.97610000
S      -49.27910000     -34.01700000     -73.41880000
S      -46.48360000     -33.27730000     -75.01340000
H      -44.33830000     -32.16370000     -74.28160000
