40
Properties=species:S:1:pos:R:3 #=T CELL(abcABC):=T 1.889726e+02=T 90.00000=T Traj:=T positionsangstrom=T Step:=T 0=T Bead:=T pbc="F F F"
C      -42.24480000     -34.48890000     -68.98060000
C      -43.14780000     -33.67880000     -69.66200000
C      -43.87100000     -34.29390000     -70.66810000
C      -43.70660000     -35.59990000     -71.10850000
C      -42.82450000     -36.38640000     -70.35530000
C      -42.14860000     -35.84930000     -69.24920000
H      -41.65760000     -34.03670000     -68.19800000
H      -44.38180000     -33.60280000     -71.29120000
H      -42.71790000     -37.46160000     -70.68740000
H      -41.51430000     -36.52740000     -68.59580000
C      -44.29310000     -36.08580000     -72.39190000
H      -43.57580000     -36.87970000     -72.73940000
H      -44.41780000     -35.24630000     -73.05100000
C      -43.29670000     -32.21740000     -69.36630000
H      -42.34100000     -31.83550000     -69.17810000
H      -43.54790000     -31.82480000     -70.35800000
S      -45.90310000     -36.96440000     -72.25480000
S      -44.69930000     -31.91850000     -68.15280000
C      -46.97360000     -35.85350000     -71.27860000
H      -47.78740000     -36.49190000     -70.91050000
H      -46.37010000     -35.43100000     -70.38440000
C      -46.08880000     -33.02590000     -68.70300000
H      -46.66440000     -33.39430000     -67.86730000
H      -45.66550000     -33.91220000     -69.29230000
C      -47.13400000     -32.19280000     -69.58810000
H      -48.01600000     -32.86930000     -69.73740000
H      -47.41050000     -31.33820000     -68.93320000
C      -47.70170000     -34.74560000     -72.02940000
H      -48.43980000     -34.17990000     -71.36980000
H      -48.28700000     -35.23510000     -72.78030000
C      -47.00200000     -33.53410000     -72.71560000
C      -46.74420000     -33.62850000     -74.07710000
C      -46.67130000     -32.16950000     -72.26430000
H      -46.95930000     -34.46530000     -74.82800000
C      -46.14430000     -31.33880000     -73.22370000
C      -46.59300000     -31.58380000     -70.91320000
C      -46.00760000     -30.31380000     -70.93980000
S      -46.16870000     -32.11510000     -74.80300000
S      -45.55810000     -29.80820000     -72.59550000
H      -45.73690000     -29.79920000     -70.05000000
