40
Properties=species:S:1:pos:R:3 #=T CELL(abcABC):=T 1.889726e+02=T 90.00000=T Traj:=T positionsangstrom=T Step:=T 0=T Bead:=T pbc="F F F"
C      -44.43990000     -34.98510000     -74.97680000
C      -43.54210000     -34.43750000     -74.08380000
C      -43.21980000     -35.06410000     -72.89550000
C      -43.89530000     -36.21890000     -72.47430000
C      -44.89660000     -36.73110000     -73.36430000
C      -45.24790000     -36.01970000     -74.49570000
H      -44.69680000     -34.60240000     -75.97280000
H      -42.51720000     -34.54800000     -72.24790000
H      -45.47980000     -37.55470000     -72.95910000
H      -46.08010000     -36.38140000     -75.11680000
C      -43.44740000     -36.90540000     -71.17570000
H      -42.42150000     -37.32570000     -71.23040000
H      -44.15650000     -37.71420000     -71.03940000
C      -42.62060000     -33.31850000     -74.55750000
H      -41.59690000     -33.57660000     -74.66630000
H      -42.94580000     -32.92360000     -75.51560000
S      -43.37230000     -35.84180000     -69.66260000
S      -42.65040000     -31.82510000     -73.45090000
C      -45.00290000     -35.00990000     -69.70030000
H      -45.28570000     -34.73720000     -70.70540000
H      -45.83750000     -35.68140000     -69.42040000
C      -44.43780000     -31.54540000     -73.18380000
H      -44.99720000     -32.19940000     -73.83040000
H      -44.71780000     -30.47710000     -73.19250000
C      -44.74930000     -32.12700000     -71.74400000
H      -44.59150000     -33.22720000     -71.73020000
H      -44.00790000     -31.80030000     -70.97820000
C      -44.96600000     -33.77410000     -68.81400000
H      -44.18280000     -33.11590000     -69.01520000
H      -44.71250000     -34.15720000     -67.81690000
C      -46.21840000     -32.93290000     -68.78000000
C      -47.08540000     -32.97420000     -67.72420000
C      -46.67300000     -32.18600000     -69.88080000
H      -47.02050000     -33.59160000     -66.85260000
C      -47.93510000     -31.56410000     -69.64040000
C      -46.13400000     -31.80440000     -71.19440000
C      -47.09610000     -31.06100000     -71.88240000
S      -48.54570000     -31.95610000     -68.07800000
S      -48.54470000     -30.56100000     -70.94040000
H      -47.05580000     -30.78080000     -72.93680000
