40
Properties=species:S:1:pos:R:3 #=T CELL(abcABC):=T 1.889726e+02=T 90.00000=T Traj:=T positionsangstrom=T Step:=T 0=T Bead:=T pbc="F F F"
C      -42.65660000     -34.49210000     -69.06940000
C      -43.25960000     -33.44360000     -69.79200000
C      -43.76670000     -33.66810000     -71.04810000
C      -43.60420000     -34.84270000     -71.75990000
C      -43.00820000     -35.88640000     -71.00930000
C      -42.54960000     -35.74920000     -69.66710000
H      -42.29470000     -34.37130000     -68.03960000
H      -44.23530000     -32.75350000     -71.48030000
H      -42.74920000     -36.85020000     -71.50690000
H      -41.89610000     -36.52610000     -69.16830000
C      -44.01730000     -35.18950000     -73.15090000
H      -43.23750000     -35.35820000     -73.84910000
H      -44.55340000     -34.27640000     -73.54910000
C      -43.37820000     -32.09380000     -69.19690000
H      -42.44400000     -31.82900000     -68.65560000
H      -43.64030000     -31.25110000     -69.90190000
S      -45.23620000     -36.56720000     -73.14870000
S      -44.55330000     -32.08070000     -67.79020000
C      -46.24960000     -36.15140000     -71.58240000
H      -46.58310000     -37.14540000     -71.29700000
H      -45.64990000     -35.69880000     -70.83640000
C      -45.96510000     -33.12420000     -68.38250000
H      -46.48530000     -33.51010000     -67.46170000
H      -45.59090000     -33.91420000     -68.99970000
C      -47.06620000     -32.36190000     -69.15470000
H      -47.91200000     -33.04850000     -69.24560000
H      -47.38970000     -31.42820000     -68.62310000
C      -47.45810000     -35.15570000     -71.79220000
H      -47.92350000     -34.93840000     -70.83450000
H      -48.25520000     -35.59090000     -72.26020000
C      -47.03540000     -33.84630000     -72.48030000
C      -47.19330000     -33.77740000     -73.80600000
C      -46.55560000     -32.62890000     -71.84650000
H      -47.66690000     -34.60420000     -74.45210000
C      -46.30740000     -31.67360000     -72.86160000
C      -46.53820000     -31.95240000     -70.54380000
C      -46.17530000     -30.67750000     -70.70110000
S      -46.60490000     -32.21720000     -74.46570000
S      -45.89500000     -30.08580000     -72.28320000
H      -45.97430000     -30.07170000     -69.92190000
