40
Properties=species:S:1:pos:R:3 #=T CELL(abcABC):=T 1.889726e+02=T 90.00000=T Traj:=T positionsangstrom=T Step:=T 0=T Bead:=T pbc="F F F"
C      -42.57540000     -34.51210000     -69.09700000
C      -43.11760000     -33.39340000     -69.82230000
C      -43.42300000     -33.55580000     -71.13820000
C      -43.40920000     -34.80380000     -71.79290000
C      -42.93260000     -35.89880000     -71.07210000
C      -42.50230000     -35.72150000     -69.72400000
H      -42.21570000     -34.47790000     -68.08100000
H      -43.73980000     -32.69480000     -71.63070000
H      -43.18560000     -36.90120000     -71.40660000
H      -42.26520000     -36.71600000     -69.14860000
C      -44.11300000     -34.86600000     -73.19010000
H      -43.29670000     -35.13780000     -73.88240000
H      -44.52230000     -33.86580000     -73.35970000
C      -43.29040000     -32.07400000     -69.08420000
H      -42.35340000     -31.93060000     -68.55530000
H      -43.49530000     -31.20740000     -69.69160000
S      -45.28880000     -36.26840000     -73.26960000
S      -44.54380000     -32.08250000     -67.70790000
C      -46.28240000     -36.20640000     -71.71580000
H      -46.65020000     -37.22750000     -71.60400000
H      -45.61980000     -35.97420000     -70.86150000
C      -45.78600000     -33.27970000     -68.40860000
H      -46.15000000     -33.82290000     -67.51540000
H      -45.21640000     -34.06410000     -68.97910000
C      -47.00210000     -32.76580000     -69.27860000
H      -47.75760000     -33.51720000     -69.55320000
H      -47.52560000     -32.11680000     -68.59720000
C      -47.46620000     -35.18720000     -71.66880000
H      -47.64100000     -34.96500000     -70.67060000
H      -48.31350000     -35.59110000     -72.33450000
C      -47.06760000     -33.86830000     -72.40520000
C      -47.16310000     -33.89520000     -73.74310000
C      -46.82070000     -32.59050000     -71.87580000
H      -47.45570000     -34.72090000     -74.31460000
C      -46.56900000     -31.62510000     -72.89530000
C      -46.67230000     -32.02320000     -70.53180000
C      -46.32200000     -30.73380000     -70.56200000
S      -46.59140000     -32.37520000     -74.47330000
S      -45.99850000     -30.05800000     -72.18390000
H      -46.05660000     -30.13210000     -69.66560000
