40
Properties=species:S:1:pos:R:3 #=T CELL(abcABC):=T 1.889726e+02=T 90.00000=T Traj:=T positionsangstrom=T Step:=T 0=T Bead:=T pbc="F F F"
C      -42.41750000     -34.42920000     -69.10080000
C      -42.96770000     -33.31080000     -69.75680000
C      -43.37650000     -33.44360000     -71.09790000
C      -43.34550000     -34.68660000     -71.77140000
C      -42.87260000     -35.81010000     -71.04100000
C      -42.43680000     -35.66560000     -69.76210000
H      -42.10010000     -34.34080000     -68.02530000
H      -43.86490000     -32.66520000     -71.66600000
H      -42.58990000     -36.75510000     -71.52120000
H      -42.02200000     -36.55700000     -69.26370000
C      -43.84380000     -34.85110000     -73.11970000
H      -43.15750000     -35.33990000     -73.85720000
H      -44.10930000     -33.94560000     -73.59260000
C      -43.07410000     -32.00740000     -69.01490000
H      -42.10870000     -31.81150000     -68.53730000
H      -43.27760000     -31.18570000     -69.76560000
S      -45.24420000     -36.10280000     -73.38290000
S      -44.56230000     -32.14440000     -67.92540000
C      -46.25970000     -36.06560000     -71.81850000
H      -46.56980000     -36.99820000     -71.47200000
H      -45.52890000     -35.73270000     -71.07490000
C      -45.70310000     -33.50680000     -68.54610000
H      -45.87910000     -34.18750000     -67.70700000
H      -45.10470000     -34.11600000     -69.25430000
C      -46.97500000     -32.80080000     -69.11080000
H      -47.77090000     -33.58440000     -69.20690000
H      -47.33910000     -32.07870000     -68.38490000
C      -47.52170000     -35.25190000     -71.76380000
H      -47.80710000     -35.23910000     -70.67980000
H      -48.29740000     -35.85940000     -72.24000000
C      -47.35910000     -33.92030000     -72.44300000
C      -47.38720000     -33.80670000     -73.80130000
C      -46.86520000     -32.73390000     -71.77170000
H      -47.55400000     -34.48370000     -74.55230000
C      -46.50870000     -31.76740000     -72.76330000
C      -46.74160000     -32.12500000     -70.42240000
C      -46.31040000     -30.84940000     -70.47330000
S      -46.81310000     -32.28320000     -74.32870000
S      -46.07390000     -30.24480000     -72.13890000
H      -46.29710000     -30.09290000     -69.64520000
