40
Properties=species:S:1:pos:R:3 #=T CELL(abcABC):=T 1.889726e+02=T 90.00000=T Traj:=T positionsangstrom=T Step:=T 0=T Bead:=T pbc="F F F"
C      -47.85100000     -35.07030000     -71.03380000
C      -46.91260000     -36.00380000     -70.50490000
C      -45.79400000     -36.46900000     -71.23730000
C      -45.53100000     -35.91600000     -72.49430000
C      -46.45740000     -34.95850000     -73.02820000
C      -47.59750000     -34.62340000     -72.32760000
H      -48.73630000     -34.81100000     -70.44920000
H      -45.12710000     -37.22090000     -70.68340000
H      -46.22820000     -34.50330000     -73.99770000
H      -48.31340000     -33.83800000     -72.68300000
C      -44.33400000     -36.34370000     -73.19800000
H      -44.58090000     -36.78510000     -74.13050000
H      -43.70750000     -36.99380000     -72.56370000
C      -47.01660000     -36.48530000     -69.09070000
H      -48.08020000     -36.47260000     -68.71270000
H      -46.72170000     -37.57990000     -69.04670000
S      -43.39250000     -34.78660000     -73.76740000
S      -45.80380000     -35.75880000     -67.96800000
C      -42.83180000     -34.36180000     -72.03500000
H      -43.70850000     -34.63520000     -71.46250000
H      -41.94120000     -34.91920000     -71.70200000
C      -45.99480000     -33.94450000     -68.29800000
H      -45.84920000     -33.48420000     -67.31560000
H      -47.00010000     -33.72180000     -68.64800000
C      -45.10950000     -33.37140000     -69.46870000
H      -44.09260000     -33.32300000     -69.12310000
H      -44.93460000     -34.13720000     -70.26090000
C      -42.56840000     -32.88890000     -71.78270000
H      -41.58750000     -32.65730000     -72.18420000
H      -42.49850000     -32.77060000     -70.69790000
C      -43.66200000     -31.85560000     -72.15250000
C      -43.53430000     -31.02330000     -73.20340000
C      -44.76720000     -31.53040000     -71.31160000
H      -42.76380000     -31.13750000     -74.06670000
C      -45.39250000     -30.34400000     -71.72690000
C      -45.45780000     -32.06720000     -70.09770000
C      -46.49180000     -31.27290000     -69.73710000
S      -44.71800000     -29.62140000     -73.14500000
S      -46.72850000     -29.87480000     -70.77190000
H      -47.14080000     -31.47970000     -68.91310000
