40
Properties=species:S:1:pos:R:3 #=T CELL(abcABC):=T 1.889726e+02=T 90.00000=T Traj:=T positionsangstrom=T Step:=T 0=T Bead:=T pbc="F F F"
C      -47.85890000     -34.72150000     -71.13630000
C      -46.88620000     -35.65530000     -70.70220000
C      -45.93670000     -36.14260000     -71.58710000
C      -45.83480000     -35.70220000     -72.94480000
C      -46.73080000     -34.71390000     -73.34230000
C      -47.72980000     -34.25320000     -72.49030000
H      -48.70460000     -34.37870000     -70.48750000
H      -45.21510000     -36.89720000     -71.26010000
H      -46.79960000     -34.24630000     -74.35690000
H      -48.43850000     -33.45070000     -72.82230000
C      -44.69140000     -36.09830000     -73.94510000
H      -44.95640000     -35.72100000     -74.93170000
H      -44.30100000     -37.14930000     -73.91970000
C      -47.05260000     -36.26300000     -69.37790000
H      -48.04120000     -36.70280000     -69.25060000
H      -46.41330000     -37.09800000     -69.43620000
S      -43.10270000     -35.05030000     -73.54830000
S      -46.44780000     -35.36380000     -67.90750000
C      -42.90880000     -34.80910000     -71.74250000
H      -43.84580000     -35.04600000     -71.18290000
H      -42.03040000     -35.40690000     -71.38920000
C      -46.28420000     -33.55960000     -68.32220000
H      -46.38390000     -33.00230000     -67.46470000
H      -47.19710000     -33.37870000     -69.00950000
C      -44.99100000     -33.22610000     -69.02630000
H      -44.13700000     -33.20480000     -68.31330000
H      -44.70980000     -34.04570000     -69.70880000
C      -42.55170000     -33.25150000     -71.39090000
H      -41.59200000     -32.90940000     -71.87700000
H      -42.52940000     -33.08850000     -70.28800000
C      -43.55400000     -32.25950000     -71.87010000
C      -43.48340000     -31.62870000     -73.08560000
C      -44.66830000     -31.69900000     -71.13640000
H      -42.83640000     -31.94480000     -73.90170000
C      -45.20290000     -30.55890000     -71.70180000
C      -45.19190000     -31.98420000     -69.83320000
C      -46.05790000     -30.97170000     -69.45020000
S      -44.54990000     -30.25410000     -73.36360000
S      -46.37230000     -29.81710000     -70.65570000
H      -46.58140000     -30.97050000     -68.42900000
