40
Properties=species:S:1:pos:R:3 #=T CELL(abcABC):=T 1.889726e+02=T 90.00000=T Traj:=T positionsangstrom=T Step:=T 0=T Bead:=T pbc="F F F"
C      -47.84220000     -34.48390000     -71.09150000
C      -46.92110000     -35.54950000     -70.74050000
C      -45.98700000     -36.04190000     -71.67440000
C      -45.86850000     -35.49890000     -72.94050000
C      -46.58110000     -34.32430000     -73.18270000
C      -47.65670000     -33.92740000     -72.36210000
H      -48.69550000     -34.15640000     -70.52420000
H      -45.43680000     -36.97530000     -71.39160000
H      -46.48180000     -33.97950000     -74.27730000
H      -48.39210000     -33.15360000     -72.66680000
C      -44.78610000     -36.06240000     -73.95860000
H      -44.94630000     -35.92100000     -74.99870000
H      -44.55830000     -37.15350000     -73.83060000
C      -47.16680000     -36.26170000     -69.39150000
H      -48.21230000     -36.38520000     -69.18660000
H      -46.70460000     -37.28950000     -69.34330000
S      -43.10140000     -35.17770000     -73.62250000
S      -46.43230000     -35.41660000     -67.90030000
C      -43.08420000     -35.02680000     -71.74100000
H      -43.97750000     -35.34900000     -71.33780000
H      -42.33290000     -35.68290000     -71.38850000
C      -46.38260000     -33.62300000     -68.34360000
H      -46.64720000     -33.09880000     -67.42350000
H      -47.18470000     -33.35020000     -69.04580000
C      -45.04220000     -33.10290000     -68.84240000
H      -44.40530000     -32.79600000     -68.04140000
H      -44.49060000     -33.87130000     -69.42240000
C      -42.63110000     -33.47360000     -71.31430000
H      -41.64680000     -33.34400000     -71.81640000
H      -42.42000000     -33.46180000     -70.29050000
C      -43.60960000     -32.42460000     -71.79740000
C      -43.41560000     -31.87850000     -73.03860000
C      -44.59350000     -31.71260000     -71.01040000
H      -42.73670000     -32.11820000     -73.81630000
C      -45.04920000     -30.61020000     -71.69800000
C      -45.27260000     -31.90770000     -69.77410000
C      -46.15190000     -30.87760000     -69.52300000
S      -44.47370000     -30.42140000     -73.33670000
S      -46.26160000     -29.72790000     -70.88140000
H      -46.84200000     -30.80890000     -68.64160000
