40
Properties=species:S:1:pos:R:3 #=T CELL(abcABC):=T 1.889726e+02=T 90.00000=T Traj:=T positionsangstrom=T Step:=T 0=T Bead:=T pbc="F F F"
C      -43.46880000     -34.12620000     -71.95940000
C      -42.82560000     -33.43360000     -70.92460000
C      -42.77790000     -34.03750000     -69.63200000
C      -43.49200000     -35.16840000     -69.34880000
C      -43.98090000     -35.99390000     -70.40110000
C      -43.90880000     -35.43280000     -71.71600000
H      -43.50940000     -33.78420000     -72.98230000
H      -42.39970000     -33.48420000     -68.77730000
H      -44.62370000     -36.81320000     -70.24660000
H      -44.44770000     -35.91070000     -72.52980000
C      -43.80330000     -35.56540000     -67.92920000
H      -43.03210000     -35.20890000     -67.21570000
H      -43.70840000     -36.65090000     -67.75060000
C      -42.06440000     -32.16920000     -71.15950000
H      -41.91020000     -31.59880000     -70.21420000
H      -41.14870000     -32.52000000     -71.51270000
S      -45.45280000     -34.99930000     -67.46130000
S      -42.71690000     -31.03030000     -72.42980000
C      -46.48770000     -34.96180000     -68.96180000
H      -46.22370000     -35.74100000     -69.72120000
H      -47.48380000     -35.34180000     -68.66430000
C      -44.02030000     -30.02000000     -71.58270000
H      -44.26770000     -29.20070000     -72.26890000
H      -43.57490000     -29.61530000     -70.69130000
C      -45.21560000     -30.89910000     -71.21380000
H      -44.80380000     -31.83050000     -70.69260000
H      -45.80210000     -30.35790000     -70.51170000
C      -46.44720000     -33.61590000     -69.60060000
H      -45.44740000     -33.25450000     -69.63460000
H      -47.00480000     -32.92710000     -68.95880000
C      -47.01990000     -33.73660000     -71.02940000
C      -47.88620000     -34.77190000     -71.39890000
C      -46.80760000     -32.73930000     -72.09910000
H      -48.43030000     -35.41940000     -70.72330000
C      -47.49730000     -33.18640000     -73.21420000
C      -46.02470000     -31.48820000     -72.36310000
C      -46.12020000     -31.13130000     -73.66590000
S      -48.44870000     -34.66320000     -73.06420000
S      -47.12060000     -32.26040000     -74.69320000
H      -45.53790000     -30.30100000     -74.00310000
