40
Properties=species:S:1:pos:R:3 #=T CELL(abcABC):=T 1.889726e+02=T 90.00000=T Traj:=T positionsangstrom=T Step:=T 0=T Bead:=T pbc="F F F"
C      -43.32660000     -34.24220000     -71.97160000
C      -42.94660000     -33.42710000     -70.85800000
C      -43.13410000     -33.88250000     -69.56420000
C      -43.48270000     -35.26390000     -69.36160000
C      -43.83140000     -36.08840000     -70.43880000
C      -43.80190000     -35.53610000     -71.72740000
H      -43.41990000     -33.91450000     -72.96420000
H      -42.74990000     -33.41580000     -68.65670000
H      -43.82860000     -37.16740000     -70.22500000
H      -44.08820000     -36.17060000     -72.64210000
C      -43.70750000     -35.80190000     -67.95990000
H      -42.96540000     -35.38080000     -67.36960000
H      -43.72190000     -36.90980000     -67.91460000
C      -42.36720000     -32.03240000     -71.04920000
H      -42.70460000     -31.42990000     -70.21840000
H      -41.24910000     -32.09100000     -70.83820000
S      -45.32790000     -35.08440000     -67.26030000
S      -42.74530000     -31.03270000     -72.53530000
C      -46.41270000     -34.89170000     -68.71000000
H      -46.14600000     -35.76720000     -69.28840000
H      -47.39400000     -35.17910000     -68.26650000
C      -44.13010000     -29.95800000     -71.86150000
H      -44.46380000     -29.31040000     -72.63490000
H      -43.64020000     -29.29050000     -71.08920000
C      -45.36490000     -30.73530000     -71.28910000
H      -45.13290000     -31.31190000     -70.42030000
H      -46.10170000     -29.98550000     -70.94040000
C      -46.45190000     -33.61420000     -69.58380000
H      -45.37780000     -33.22230000     -69.55770000
H      -47.09060000     -32.91960000     -69.04920000
C      -47.00970000     -33.76940000     -71.04980000
C      -47.96110000     -34.70740000     -71.43550000
C      -46.69940000     -32.87860000     -72.15150000
H      -48.24450000     -35.57920000     -70.84070000
C      -47.39340000     -33.19650000     -73.29740000
C      -46.00680000     -31.58110000     -72.35800000
C      -46.08820000     -31.19390000     -73.65930000
S      -48.36580000     -34.63610000     -73.18120000
S      -47.17570000     -32.09910000     -74.62650000
H      -45.79860000     -30.27370000     -74.11250000
