40
Properties=species:S:1:pos:R:3 #=T CELL(abcABC):=T 1.889726e+02=T 90.00000=T Traj:=T positionsangstrom=T Step:=T 0=T Bead:=T pbc="F F F"
C      -42.68520000     -34.28740000     -72.05110000
C      -42.53380000     -33.48100000     -70.93710000
C      -42.92940000     -34.08560000     -69.65940000
C      -43.66020000     -35.27050000     -69.71710000
C      -43.79250000     -36.07040000     -70.83870000
C      -43.20540000     -35.54950000     -71.98910000
H      -42.38670000     -33.79820000     -73.01240000
H      -42.73480000     -33.55810000     -68.76610000
H      -44.31100000     -37.01610000     -70.83760000
H      -43.28680000     -36.05160000     -72.93970000
C      -44.05360000     -35.80000000     -68.33870000
H      -43.11460000     -36.02980000     -67.74280000
H      -44.39110000     -36.80150000     -68.46510000
C      -42.07400000     -32.03900000     -70.96630000
H      -42.31220000     -31.56250000     -69.95970000
H      -41.02750000     -31.96500000     -71.10980000
S      -45.27520000     -34.84830000     -67.37730000
S      -42.88080000     -31.04800000     -72.32830000
C      -46.64650000     -34.62970000     -68.61010000
H      -46.63220000     -35.55260000     -69.21920000
H      -47.55780000     -34.92530000     -68.02620000
C      -44.16190000     -29.93430000     -71.66140000
H      -44.38190000     -29.09120000     -72.39530000
H      -43.74130000     -29.56400000     -70.74150000
C      -45.47800000     -30.72410000     -71.19770000
H      -45.17520000     -31.30860000     -70.33940000
H      -46.05840000     -29.94340000     -70.84570000
C      -46.73990000     -33.31870000     -69.49190000
H      -45.75930000     -33.02830000     -69.74000000
H      -47.29740000     -32.49170000     -69.06940000
C      -47.22510000     -33.64500000     -70.89350000
C      -47.95210000     -34.77270000     -71.34320000
C      -46.96130000     -32.77170000     -72.02480000
H      -48.47130000     -35.48140000     -70.70960000
C      -47.45060000     -33.31780000     -73.27010000
C      -46.27840000     -31.51950000     -72.24710000
C      -46.34230000     -31.13520000     -73.58770000
S      -48.18400000     -34.88980000     -73.06930000
S      -47.24010000     -32.26210000     -74.60930000
H      -45.93680000     -30.25860000     -74.14260000
