40
Properties=species:S:1:pos:R:3 #=T CELL(abcABC):=T 1.889726e+02=T 90.00000=T Traj:=T positionsangstrom=T Step:=T 0=T Bead:=T pbc="F F F"
C      -42.59430000     -34.28560000     -72.11630000
C      -42.60980000     -33.42090000     -70.95490000
C      -43.22420000     -33.92330000     -69.79780000
C      -43.63570000     -35.32950000     -69.74980000
C      -43.59050000     -36.11760000     -70.88720000
C      -43.11950000     -35.57820000     -72.09270000
H      -42.22200000     -33.84410000     -73.03730000
H      -43.18060000     -33.13870000     -68.94790000
H      -43.75810000     -37.17920000     -70.82700000
H      -43.14600000     -36.05880000     -72.98020000
C      -44.12970000     -35.87450000     -68.47210000
H      -43.24900000     -35.89190000     -67.80060000
H      -44.57430000     -36.84030000     -68.64610000
C      -42.01190000     -32.04670000     -71.07250000
H      -41.96540000     -31.51080000     -70.14950000
H      -40.97380000     -32.11040000     -71.43750000
S      -45.22300000     -34.69800000     -67.51350000
S      -42.93060000     -30.98290000     -72.28560000
C      -46.71740000     -34.78660000     -68.61070000
H      -46.62510000     -35.67650000     -69.13250000
H      -47.55240000     -34.78580000     -67.93350000
C      -44.17610000     -30.03260000     -71.33370000
H      -44.28160000     -29.09760000     -71.85320000
H      -43.80790000     -29.78860000     -70.30860000
C      -45.47880000     -30.79460000     -71.08980000
H      -45.31220000     -31.39180000     -70.15940000
H      -46.18440000     -29.94490000     -70.73060000
C      -46.78810000     -33.49290000     -69.49240000
H      -45.81110000     -32.95700000     -69.30020000
H      -47.60240000     -32.88570000     -69.00470000
C      -47.13760000     -33.75850000     -70.90810000
C      -47.72150000     -34.96820000     -71.34090000
C      -46.89700000     -32.84360000     -72.00400000
H      -48.09820000     -35.85600000     -70.73850000
C      -47.48180000     -33.25130000     -73.19920000
C      -46.27160000     -31.56870000     -72.20140000
C      -46.47260000     -31.05230000     -73.48410000
S      -48.27340000     -34.85940000     -73.06090000
S      -47.20580000     -32.19430000     -74.56780000
H      -45.88440000     -30.23390000     -73.89370000
