40
Properties=species:S:1:pos:R:3 #=T CELL(abcABC):=T 1.889726e+02=T 90.00000=T Traj:=T positionsangstrom=T Step:=T 0=T Bead:=T pbc="F F F"
C      -47.72610000     -33.14570000     -72.00160000
C      -47.26990000     -34.21080000     -71.15680000
C      -46.45230000     -35.21620000     -71.58340000
C      -45.91770000     -35.10570000     -72.90570000
C      -46.30370000     -34.09620000     -73.77300000
C      -47.22300000     -33.13210000     -73.27640000
H      -48.46480000     -32.37760000     -71.73000000
H      -46.21780000     -36.18020000     -71.03130000
H      -45.81770000     -34.04580000     -74.77600000
H      -47.51080000     -32.40280000     -73.98240000
C      -44.85770000     -36.17480000     -73.28920000
H      -44.89440000     -36.46850000     -74.37290000
H      -45.05020000     -37.07700000     -72.65940000
C      -48.01170000     -34.18430000     -69.80940000
H      -48.38700000     -33.15440000     -69.62270000
H      -48.97830000     -34.70500000     -69.99500000
S      -43.16810000     -35.62600000     -73.02760000
S      -47.15740000     -34.83970000     -68.36740000
C      -43.02530000     -35.48750000     -71.18240000
H      -44.04110000     -35.63140000     -70.81620000
H      -42.20570000     -36.09880000     -70.81470000
C      -46.43220000     -33.32280000     -67.68270000
H      -46.14090000     -33.42980000     -66.59830000
H      -47.15420000     -32.59590000     -67.70430000
C      -45.14230000     -33.07110000     -68.47900000
H      -44.45380000     -32.61760000     -67.80690000
H      -44.65380000     -34.00720000     -68.77200000
C      -42.50260000     -34.04000000     -70.67810000
H      -41.42500000     -33.96700000     -70.84850000
H      -42.57190000     -34.01630000     -69.55090000
C      -43.18690000     -32.89470000     -71.28600000
C      -42.79140000     -32.46450000     -72.58330000
C      -44.41370000     -32.26860000     -70.87810000
H      -41.98280000     -32.93410000     -73.12060000
C      -44.84940000     -31.33980000     -71.86570000
C      -45.30600000     -32.20220000     -69.70210000
C      -46.33230000     -31.31910000     -69.85010000
S      -43.80960000     -31.25940000     -73.23780000
S      -46.21570000     -30.37490000     -71.40190000
H      -47.10750000     -31.11170000     -69.15960000
