40
Properties=species:S:1:pos:R:3 #=T CELL(abcABC):=T 1.889726e+02=T 90.00000=T Traj:=T positionsangstrom=T Step:=T 0=T Bead:=T pbc="F F F"
C      -45.37830000     -37.15520000     -68.64900000
C      -45.90510000     -35.88290000     -68.77230000
C      -46.78440000     -35.57360000     -69.78730000
C      -46.93200000     -36.50980000     -70.85620000
C      -46.21530000     -37.71050000     -70.86930000
C      -45.53270000     -38.15690000     -69.66940000
H      -44.78010000     -37.52100000     -67.78570000
H      -47.22950000     -34.55750000     -69.84140000
H      -46.34800000     -38.41450000     -71.67460000
H      -45.03670000     -39.16420000     -69.54950000
C      -47.79290000     -36.19390000     -72.05400000
H      -48.56100000     -37.01560000     -72.08520000
H      -47.22410000     -36.24660000     -72.99770000
C      -45.66250000     -34.82280000     -67.73060000
H      -46.38550000     -34.09180000     -67.85420000
H      -45.64600000     -35.16070000     -66.68570000
S      -48.67010000     -34.55470000     -72.12210000
S      -43.93280000     -34.14610000     -67.98510000
C      -47.17350000     -33.55730000     -72.60640000
H      -46.18880000     -34.12720000     -72.49090000
H      -47.28640000     -33.30790000     -73.69080000
C      -44.03110000     -32.87730000     -69.24960000
H      -43.20640000     -32.21430000     -69.13480000
H      -44.91210000     -32.21530000     -69.10160000
C      -44.03330000     -33.26870000     -70.73510000
H      -43.33170000     -34.15140000     -70.91410000
H      -45.06160000     -33.58280000     -70.99820000
C      -47.00340000     -32.23230000     -71.84950000
H      -46.78320000     -32.47110000     -70.75860000
H      -47.89810000     -31.62580000     -71.78720000
C      -45.94360000     -31.35720000     -72.55790000
C      -46.29130000     -30.44730000     -73.46930000
C      -44.48760000     -31.37510000     -72.45280000
H      -47.37550000     -30.22540000     -73.74380000
C      -43.83260000     -30.46890000     -73.25360000
C      -43.58950000     -32.18800000     -71.62860000
C      -42.26970000     -31.84490000     -71.83630000
S      -44.99710000     -29.62930000     -74.29100000
S      -42.09460000     -30.61560000     -73.14590000
H      -41.39220000     -32.38270000     -71.38500000
