40
Properties=species:S:1:pos:R:3 #=T CELL(abcABC):=T 1.889726e+02=T 90.00000=T Traj:=T positionsangstrom=T Step:=T 0=T Bead:=T pbc="F F F"
C      -47.67360000     -33.12020000     -72.20010000
C      -47.54640000     -34.24550000     -71.39530000
C      -46.68560000     -35.25250000     -71.75050000
C      -45.96210000     -35.18440000     -73.00950000
C      -46.15370000     -34.01450000     -73.81300000
C      -46.85280000     -32.91490000     -73.30450000
H      -48.36450000     -32.39680000     -71.76750000
H      -46.62070000     -36.11610000     -71.11310000
H      -45.63730000     -33.91850000     -74.73880000
H      -46.89580000     -31.94510000     -73.90770000
C      -45.12340000     -36.30750000     -73.34280000
H      -45.03410000     -36.45290000     -74.37820000
H      -45.43310000     -37.21910000     -72.80200000
C      -48.33170000     -34.33090000     -70.09950000
H      -48.97080000     -33.48630000     -69.87420000
H      -48.98900000     -35.15860000     -70.15370000
S      -43.30390000     -36.16440000     -72.61400000
S      -47.22190000     -34.84260000     -68.69990000
C      -43.53720000     -35.54850000     -70.90880000
H      -44.52630000     -35.24190000     -70.81510000
H      -43.34600000     -36.35790000     -70.19780000
C      -46.52840000     -33.37280000     -67.89930000
H      -46.31570000     -33.58250000     -66.91850000
H      -47.29270000     -32.62340000     -67.90740000
C      -45.20630000     -32.82530000     -68.39650000
H      -44.81860000     -32.17420000     -67.57690000
H      -44.48630000     -33.62490000     -68.48890000
C      -42.77200000     -34.28350000     -70.64980000
H      -41.68790000     -34.38450000     -71.08610000
H      -42.68890000     -34.15790000     -69.56050000
C      -43.38700000     -33.09730000     -71.36090000
C      -42.90690000     -32.75560000     -72.62860000
C      -44.37870000     -32.17230000     -70.83720000
H      -42.34100000     -33.31660000     -73.27870000
C      -44.55190000     -31.13350000     -71.75780000
C      -45.21240000     -31.92000000     -69.65840000
C      -45.95810000     -30.79940000     -69.68140000
S      -43.69740000     -31.34330000     -73.24750000
S      -45.64740000     -29.90330000     -71.20190000
H      -46.67920000     -30.51460000     -68.95920000
