40
Properties=species:S:1:pos:R:3 #=T CELL(abcABC):=T 1.889726e+02=T 90.00000=T Traj:=T positionsangstrom=T Step:=T 0=T Bead:=T pbc="F F F"
C      -47.58820000     -33.08590000     -72.20220000
C      -47.65990000     -34.25540000     -71.43960000
C      -46.96820000     -35.35160000     -71.90900000
C      -46.10220000     -35.29470000     -73.02530000
C      -45.98570000     -34.06290000     -73.73450000
C      -46.76280000     -32.97720000     -73.40630000
H      -48.32430000     -32.25900000     -71.92010000
H      -46.98700000     -36.27060000     -71.26880000
H      -45.36580000     -34.05210000     -74.68950000
H      -46.75840000     -32.02610000     -73.94310000
C      -45.11230000     -36.36440000     -73.30950000
H      -44.93970000     -36.42820000     -74.40520000
H      -45.52930000     -37.34020000     -73.09850000
C      -48.33290000     -34.29420000     -70.09830000
H      -48.71600000     -33.24940000     -69.91640000
H      -49.23530000     -34.95610000     -70.09250000
S      -43.53940000     -36.26190000     -72.38900000
S      -47.30970000     -34.87020000     -68.67280000
C      -43.78360000     -35.46780000     -70.73030000
H      -44.88630000     -35.30600000     -70.67560000
H      -43.62800000     -36.18310000     -69.85050000
C      -46.58020000     -33.28300000     -68.11620000
H      -46.61700000     -33.27770000     -66.94450000
H      -47.33400000     -32.50800000     -68.43900000
C      -45.17420000     -32.99920000     -68.63970000
H      -44.63450000     -32.71590000     -67.73030000
H      -44.72310000     -33.97020000     -68.97370000
C      -42.92440000     -34.24910000     -70.61010000
H      -41.90130000     -34.49880000     -70.86110000
H      -42.92570000     -33.96140000     -69.56280000
C      -43.31370000     -33.08380000     -71.41020000
C      -42.76460000     -32.71950000     -72.64260000
C      -44.24310000     -32.12480000     -70.86380000
H      -42.11600000     -33.19130000     -73.35330000
C      -44.42950000     -31.05910000     -71.76920000
C      -45.02780000     -31.89030000     -69.69500000
C      -45.71260000     -30.72000000     -69.65350000
S      -43.53760000     -31.22560000     -73.26910000
S      -45.56880000     -29.89520000     -71.18930000
H      -46.41150000     -30.44640000     -68.84300000
