40
Properties=species:S:1:pos:R:3 #=T CELL(abcABC):=T 1.889726e+02=T 90.00000=T Traj:=T positionsangstrom=T Step:=T 0=T Bead:=T pbc="F F F"
C      -47.51650000     -33.00730000     -72.21200000
C      -47.66900000     -34.18040000     -71.44340000
C      -46.92940000     -35.30400000     -71.83730000
C      -46.05540000     -35.30550000     -72.87690000
C      -45.95300000     -34.15780000     -73.67310000
C      -46.76460000     -33.05120000     -73.37770000
H      -47.87980000     -32.07560000     -71.80120000
H      -47.07630000     -36.21620000     -71.22320000
H      -45.14490000     -34.17820000     -74.41840000
H      -46.60540000     -32.16780000     -73.88770000
C      -45.21850000     -36.57470000     -73.18380000
H      -44.92970000     -36.57830000     -74.28280000
H      -45.75410000     -37.48610000     -72.88970000
C      -48.56510000     -34.30200000     -70.26900000
H      -49.05120000     -33.35710000     -70.09940000
H      -49.27230000     -35.14120000     -70.33330000
S      -43.57480000     -36.54870000     -72.34600000
S      -47.50750000     -34.71110000     -68.77370000
C      -43.83460000     -35.44120000     -70.89780000
H      -44.79960000     -35.02170000     -71.04520000
H      -43.75960000     -35.97690000     -69.99990000
C      -46.66930000     -33.16750000     -68.07830000
H      -46.65620000     -33.36090000     -66.99840000
H      -47.23600000     -32.27930000     -68.21640000
C      -45.21520000     -32.83290000     -68.55980000
H      -44.67340000     -32.26180000     -67.80980000
H      -44.67260000     -33.77120000     -68.72580000
C      -42.81790000     -34.29470000     -70.67660000
H      -41.83030000     -34.61500000     -70.97530000
H      -42.66460000     -34.08700000     -69.59710000
C      -43.19970000     -33.03240000     -71.35090000
C      -42.74910000     -32.72310000     -72.62600000
C      -44.14760000     -32.05190000     -70.82840000
H      -41.89990000     -33.17470000     -73.17050000
C      -44.32870000     -30.99530000     -71.78360000
C      -45.11020000     -31.94370000     -69.77050000
C      -45.87020000     -30.83510000     -69.84150000
S      -43.37110000     -31.20300000     -73.19700000
S      -45.46170000     -29.83380000     -71.19160000
H      -46.64580000     -30.47900000     -69.09950000
