40
Properties=species:S:1:pos:R:3 #=T CELL(abcABC):=T 1.889726e+02=T 90.00000=T Traj:=T positionsangstrom=T Step:=T 0=T Bead:=T pbc="F F F"
C      -48.12530000     -35.55700000     -70.21580000
C      -46.99910000     -35.60450000     -69.41580000
C      -45.81490000     -36.21130000     -69.93220000
C      -45.87120000     -36.76690000     -71.21130000
C      -47.02740000     -36.68600000     -71.99550000
C      -48.19370000     -36.10610000     -71.42900000
H      -49.06850000     -35.09860000     -69.75170000
H      -44.91800000     -36.25920000     -69.36820000
H      -46.96100000     -37.40660000     -72.83460000
H      -49.15600000     -36.06580000     -71.97610000
C      -44.64220000     -37.36150000     -71.83440000
H      -44.80290000     -38.40580000     -72.11390000
H      -43.78240000     -37.45360000     -71.15950000
C      -46.84540000     -35.00320000     -68.04850000
H      -47.53740000     -35.46230000     -67.31520000
H      -45.92710000     -35.07470000     -67.65180000
S      -44.11500000     -36.43610000     -73.31040000
S      -47.48460000     -33.30400000     -67.92000000
C      -44.37150000     -34.63410000     -72.98990000
H      -43.92710000     -34.12410000     -73.87080000
H      -45.45060000     -34.28290000     -73.12730000
C      -46.34370000     -32.25520000     -69.09080000
H      -45.30650000     -32.52350000     -68.94410000
H      -46.47420000     -31.25740000     -68.66470000
C      -46.72260000     -32.27770000     -70.61570000
H      -46.51590000     -33.33700000     -70.94880000
H      -47.80700000     -32.10190000     -70.66380000
C      -43.81500000     -34.08150000     -71.66070000
H      -43.04650000     -34.71840000     -71.22870000
H      -44.60950000     -34.13730000     -70.85870000
C      -43.42380000     -32.61050000     -71.95440000
C      -42.25920000     -32.15440000     -72.48770000
C      -44.42040000     -31.53260000     -71.80660000
H      -41.37090000     -32.79300000     -72.65180000
C      -43.91740000     -30.35060000     -72.35310000
C      -45.88710000     -31.30920000     -71.45890000
C      -46.34740000     -30.11400000     -71.81480000
S      -42.22930000     -30.43160000     -72.88000000
S      -45.07500000     -29.09900000     -72.50120000
H      -47.30460000     -29.62690000     -71.75520000
