40
Properties=species:S:1:pos:R:3 #=T CELL(abcABC):=T 1.889726e+02=T 90.00000=T Traj:=T positionsangstrom=T Step:=T 0=T Bead:=T pbc="F F F"
C      -47.45750000     -32.90120000     -72.64830000
C      -47.63980000     -33.83710000     -71.69370000
C      -47.03880000     -35.06820000     -71.77540000
C      -46.06510000     -35.34250000     -72.73360000
C      -45.88910000     -34.33560000     -73.72300000
C      -46.61120000     -33.15580000     -73.73480000
H      -48.05750000     -32.02630000     -72.65590000
H      -47.17530000     -35.70870000     -70.91400000
H      -45.14640000     -34.34250000     -74.42800000
H      -46.35730000     -32.43820000     -74.52120000
C      -45.22970000     -36.54870000     -72.72360000
H      -45.19690000     -36.91180000     -73.75790000
H      -45.58450000     -37.37230000     -72.07850000
C      -48.69500000     -33.67510000     -70.63690000
H      -49.04540000     -32.68460000     -70.59660000
H      -49.60120000     -34.20780000     -70.80460000
S      -43.42430000     -36.24920000     -72.35660000
S      -48.14570000     -34.28630000     -68.92790000
C      -43.57280000     -35.65020000     -70.54150000
H      -44.61740000     -35.50450000     -70.31560000
H      -43.19940000     -36.46340000     -69.83010000
C      -47.03490000     -33.04920000     -68.11230000
H      -47.06560000     -33.18220000     -67.03890000
H      -47.57110000     -32.12160000     -68.25840000
C      -45.61640000     -33.20180000     -68.70320000
H      -44.80310000     -33.25750000     -67.92490000
H      -45.39100000     -34.22290000     -69.20490000
C      -42.72710000     -34.42090000     -70.28210000
H      -41.69360000     -34.74510000     -70.35110000
H      -42.93250000     -34.08000000     -69.22370000
C      -43.05340000     -33.18420000     -71.11190000
C      -42.28830000     -32.84330000     -72.17420000
C      -44.24260000     -32.32780000     -70.83860000
H      -41.44840000     -33.46240000     -72.55080000
C      -44.24190000     -31.30140000     -71.77650000
C      -45.22990000     -32.16050000     -69.79020000
C      -45.90260000     -31.01780000     -70.01760000
S      -42.91470000     -31.31060000     -72.96660000
S      -45.43090000     -30.10430000     -71.38560000
H      -46.57220000     -30.73060000     -69.24210000
