40
Properties=species:S:1:pos:R:3 #=T CELL(abcABC):=T 1.889726e+02=T 90.00000=T Traj:=T positionsangstrom=T Step:=T 0=T Bead:=T pbc="F F F"
C      -48.49650000     -35.44650000     -70.38790000
C      -47.45460000     -35.48160000     -69.44030000
C      -46.26360000     -36.14560000     -69.91350000
C      -46.16450000     -36.78660000     -71.14670000
C      -47.34570000     -36.88130000     -71.94640000
C      -48.52970000     -36.22000000     -71.54060000
H      -49.44040000     -34.97280000     -70.04040000
H      -45.40440000     -36.08930000     -69.27190000
H      -47.23720000     -37.30760000     -72.95320000
H      -49.43690000     -36.35960000     -72.11070000
C      -44.93910000     -37.43900000     -71.63770000
H      -45.02400000     -38.44400000     -72.02390000
H      -44.28020000     -37.51440000     -70.77490000
C      -47.43750000     -34.79080000     -68.15040000
H      -48.18540000     -35.32620000     -67.47380000
H      -46.42790000     -34.96540000     -67.71680000
S      -44.08980000     -36.60600000     -73.11610000
S      -47.74330000     -33.03450000     -68.24000000
C      -44.33300000     -34.78830000     -72.82560000
H      -44.19600000     -34.31260000     -73.79160000
H      -45.35290000     -34.80270000     -72.50750000
C      -46.45410000     -32.35800000     -69.42230000
H      -45.44040000     -32.81710000     -69.32080000
H      -46.27020000     -31.33620000     -69.12840000
C      -46.53700000     -32.37490000     -71.00430000
H      -46.32560000     -33.41610000     -71.31550000
H      -47.56740000     -32.21710000     -71.31860000
C      -43.40310000     -34.16220000     -71.78310000
H      -42.41780000     -34.56770000     -71.84690000
H      -43.86030000     -34.49090000     -70.79670000
C      -43.25360000     -32.63080000     -71.93550000
C      -42.03850000     -32.25010000     -72.38350000
C      -44.26150000     -31.55000000     -71.89940000
H      -41.22690000     -32.96450000     -72.40900000
C      -43.61180000     -30.34290000     -72.20400000
C      -45.64930000     -31.35330000     -71.56560000
C      -46.01000000     -30.00360000     -71.72690000
S      -41.90450000     -30.48050000     -72.69780000
S      -44.69760000     -28.96300000     -72.28660000
H      -47.00800000     -29.52450000     -71.57160000
