40
Properties=species:S:1:pos:R:3 #=T CELL(abcABC):=T 1.889726e+02=T 90.00000=T Traj:=T positionsangstrom=T Step:=T 0=T Bead:=T pbc="F F F"
C      -45.10950000     -34.91990000     -74.55790000
C      -43.80770000     -34.54520000     -74.11840000
C      -43.23870000     -35.14040000     -72.99010000
C      -43.96020000     -36.16530000     -72.34220000
C      -45.27500000     -36.50890000     -72.72010000
C      -45.78590000     -35.89360000     -73.89000000
H      -45.62000000     -34.31700000     -75.35970000
H      -42.26720000     -34.80100000     -72.66710000
H      -45.91230000     -37.22040000     -72.10750000
H      -46.85080000     -36.16390000     -74.09540000
C      -43.31210000     -36.66040000     -71.01090000
H      -42.43700000     -37.28040000     -71.21570000
H      -44.02210000     -37.38070000     -70.62480000
C      -43.12480000     -33.40870000     -74.82860000
H      -42.16780000     -33.63690000     -75.33220000
H      -43.76920000     -32.98950000     -75.61860000
S      -42.89670000     -35.28330000     -69.82010000
S      -42.77930000     -31.99360000     -73.70820000
C      -44.58500000     -34.81300000     -69.36660000
H      -45.14230000     -34.66280000     -70.30390000
H      -45.11540000     -35.62480000     -68.89470000
C      -44.45130000     -31.62930000     -73.02590000
H      -45.12410000     -32.35880000     -73.52950000
H      -44.71980000     -30.65610000     -73.32570000
C      -44.58980000     -31.84230000     -71.57020000
H      -44.45290000     -32.89680000     -71.49160000
H      -43.82400000     -31.42980000     -70.92660000
C      -44.65900000     -33.44410000     -68.59590000
H      -43.80070000     -32.92110000     -69.05640000
H      -44.31450000     -33.78690000     -67.57170000
C      -46.01970000     -32.84270000     -68.79410000
C      -47.00820000     -33.03230000     -67.81460000
C      -46.54100000     -32.08190000     -69.90720000
H      -46.78600000     -33.67650000     -66.97500000
C      -47.89370000     -31.77940000     -69.77180000
C      -46.01500000     -31.58630000     -71.11430000
C      -46.91890000     -30.91250000     -71.86860000
S      -48.58130000     -32.44610000     -68.33670000
S      -48.57590000     -31.06720000     -71.22240000
H      -46.68540000     -30.61920000     -72.90700000
