40
Properties=species:S:1:pos:R:3 #=T CELL(abcABC):=T 1.889726e+02=T 90.00000=T Traj:=T positionsangstrom=T Step:=T 0=T Bead:=T pbc="F F F"
C      -47.29640000     -32.86150000     -72.92390000
C      -47.58790000     -33.87840000     -71.97790000
C      -46.83590000     -35.04490000     -72.00630000
C      -45.79980000     -35.20080000     -72.90900000
C      -45.53580000     -34.17660000     -73.80940000
C      -46.25860000     -33.04370000     -73.81750000
H      -47.90730000     -31.96760000     -72.93590000
H      -47.08920000     -35.75980000     -71.23560000
H      -44.75250000     -34.25380000     -74.61730000
H      -45.92460000     -32.29340000     -74.50100000
C      -44.97000000     -36.43930000     -72.84510000
H      -44.65890000     -36.72140000     -73.84670000
H      -45.54930000     -37.29160000     -72.35330000
C      -48.67810000     -33.64520000     -70.91880000
H      -49.09550000     -32.62030000     -70.96570000
H      -49.58820000     -34.22170000     -71.05590000
S      -43.30820000     -36.28990000     -71.93090000
S      -48.42690000     -34.15570000     -69.17890000
C      -43.59670000     -35.57060000     -70.18180000
H      -44.65020000     -35.50010000     -70.04530000
H      -43.34430000     -36.46240000     -69.55050000
C      -47.26420000     -33.05400000     -68.21850000
H      -47.27650000     -33.47880000     -67.19120000
H      -47.69470000     -32.05890000     -68.16410000
C      -45.75520000     -33.11480000     -68.74640000
H      -45.06210000     -32.95470000     -67.97220000
H      -45.49380000     -34.06430000     -69.09820000
C      -42.82840000     -34.36400000     -69.79180000
H      -41.80740000     -34.62850000     -69.67460000
H      -43.22570000     -34.15720000     -68.76940000
C      -43.09390000     -33.23740000     -70.75440000
C      -42.31470000     -32.88290000     -71.83850000
C      -44.26170000     -32.30720000     -70.68290000
H      -41.46730000     -33.50270000     -72.06140000
C      -44.23800000     -31.41690000     -71.71830000
C      -45.41870000     -32.19710000     -69.85020000
C      -46.22590000     -31.14750000     -70.24780000
S      -42.82230000     -31.41560000     -72.76270000
S      -45.56660000     -30.27360000     -71.67860000
H      -47.11370000     -30.88690000     -69.75120000
