40
Properties=species:S:1:pos:R:3 #=T CELL(abcABC):=T 1.889726e+02=T 90.00000=T Traj:=T positionsangstrom=T Step:=T 0=T Bead:=T pbc="F F F"
C      -47.35670000     -32.98000000     -72.83060000
C      -47.51150000     -33.93210000     -71.82590000
C      -46.65610000     -35.05590000     -71.79880000
C      -45.61800000     -35.11210000     -72.72040000
C      -45.44210000     -34.08070000     -73.64570000
C      -46.28630000     -33.01550000     -73.66140000
H      -48.08040000     -32.23620000     -72.84060000
H      -46.79760000     -35.72290000     -70.97200000
H      -44.57440000     -33.95910000     -74.29170000
H      -46.15720000     -32.33320000     -74.52560000
C      -44.83500000     -36.37580000     -72.78730000
H      -44.70460000     -36.77420000     -73.79080000
H      -45.42170000     -37.14350000     -72.28350000
C      -48.71700000     -33.74580000     -70.92300000
H      -48.85730000     -32.67050000     -70.96810000
H      -49.60970000     -34.22300000     -71.46970000
S      -43.19120000     -36.30420000     -72.02600000
S      -48.35630000     -34.32200000     -69.17700000
C      -43.68620000     -35.79740000     -70.30210000
H      -44.70340000     -35.53600000     -70.26410000
H      -43.53700000     -36.62740000     -69.49540000
C      -47.41740000     -32.97790000     -68.42040000
H      -47.63280000     -33.15780000     -67.36190000
H      -47.85870000     -31.96490000     -68.48800000
C      -45.93370000     -32.94450000     -68.76280000
H      -45.39900000     -32.41030000     -67.89020000
H      -45.57360000     -34.02820000     -68.82040000
C      -42.92660000     -34.44490000     -69.83430000
H      -41.84190000     -34.55520000     -69.78660000
H      -43.19420000     -34.18540000     -68.76570000
C      -43.27810000     -33.25290000     -70.80360000
C      -42.35240000     -32.87250000     -71.77820000
C      -44.45060000     -32.29000000     -70.79480000
H      -41.61580000     -33.64010000     -72.01780000
C      -44.27750000     -31.35490000     -71.75640000
C      -45.60490000     -32.12850000     -69.99900000
C      -46.28190000     -30.97020000     -70.41570000
S      -42.82990000     -31.48300000     -72.73100000
S      -45.45950000     -30.15260000     -71.67450000
H      -47.26810000     -30.61090000     -70.04820000
