40
Properties=species:S:1:pos:R:3 #=T CELL(abcABC):=T 1.889726e+02=T 90.00000=T Traj:=T positionsangstrom=T Step:=T 0=T Bead:=T pbc="F F F"
C      -47.22140000     -33.04940000     -72.95840000
C      -47.53970000     -34.01800000     -71.97790000
C      -46.74480000     -35.16400000     -71.99330000
C      -45.69710000     -35.32450000     -72.86400000
C      -45.39590000     -34.39600000     -73.87300000
C      -46.24980000     -33.28910000     -73.89810000
H      -47.70300000     -32.05050000     -72.88690000
H      -46.93840000     -35.85920000     -71.19040000
H      -44.59740000     -34.55180000     -74.64490000
H      -46.16400000     -32.54270000     -74.73180000
C      -44.82430000     -36.57140000     -72.72060000
H      -44.55550000     -36.80830000     -73.77000000
H      -45.47770000     -37.44740000     -72.33540000
C      -48.69640000     -33.74380000     -71.03520000
H      -48.94920000     -32.68990000     -70.97710000
H      -49.72020000     -34.22830000     -71.31820000
S      -43.21320000     -36.32720000     -71.79100000
S      -48.44980000     -34.47740000     -69.23920000
C      -43.70930000     -35.64000000     -70.18460000
H      -44.78780000     -35.73020000     -70.02090000
H      -43.40140000     -36.31980000     -69.31650000
C      -47.57570000     -33.03450000     -68.59280000
H      -47.68060000     -32.98610000     -67.46680000
H      -48.02060000     -32.13250000     -68.98260000
C      -46.02670000     -32.98170000     -68.92860000
H      -45.44740000     -32.91170000     -68.07600000
H      -45.77820000     -33.97770000     -69.38770000
C      -43.03170000     -34.30000000     -69.80720000
H      -41.95900000     -34.41760000     -69.71040000
H      -43.37460000     -34.12290000     -68.72230000
C      -43.30790000     -33.13100000     -70.71340000
C      -42.38430000     -32.79790000     -71.65770000
C      -44.36550000     -32.15710000     -70.72110000
H      -41.47670000     -33.32940000     -71.90690000
C      -44.18800000     -31.16080000     -71.71820000
C      -45.53330000     -31.98840000     -69.90330000
C      -46.16930000     -30.83830000     -70.23520000
S      -42.66240000     -31.35760000     -72.64060000
S      -45.49200000     -29.98010000     -71.63090000
H      -47.07000000     -30.44140000     -69.78720000
