40
Properties=species:S:1:pos:R:3 #=T CELL(abcABC):=T 1.889726e+02=T 90.00000=T Traj:=T positionsangstrom=T Step:=T 0=T Bead:=T pbc="F F F"
C      -47.10940000     -33.10420000     -72.99180000
C      -47.49850000     -34.04080000     -72.00990000
C      -46.71990000     -35.19540000     -71.88550000
C      -45.65250000     -35.45490000     -72.77760000
C      -45.39430000     -34.54430000     -73.86280000
C      -46.19130000     -33.42260000     -73.98980000
H      -47.78650000     -32.28940000     -73.05370000
H      -47.01990000     -35.95020000     -71.16760000
H      -44.57390000     -34.65060000     -74.57810000
H      -46.04980000     -32.70270000     -74.75690000
C      -44.75130000     -36.68730000     -72.62320000
H      -44.40360000     -37.14900000     -73.60850000
H      -45.19240000     -37.35390000     -71.94610000
C      -48.63800000     -33.74010000     -71.04910000
H      -48.84250000     -32.68920000     -70.85180000
H      -49.57330000     -34.17860000     -71.39900000
S      -43.21080000     -36.14650000     -71.80420000
S      -48.37170000     -34.46430000     -69.40000000
C      -43.88290000     -35.60630000     -70.19720000
H      -44.95240000     -35.28210000     -70.29790000
H      -43.72730000     -36.39160000     -69.53850000
C      -47.48010000     -33.19470000     -68.45220000
H      -47.45520000     -33.65040000     -67.49470000
H      -48.14490000     -32.28930000     -68.41350000
C      -46.03590000     -32.88170000     -68.87710000
H      -45.64250000     -32.36100000     -67.95180000
H      -45.41300000     -33.84740000     -68.97190000
C      -43.05230000     -34.28760000     -69.70790000
H      -41.99840000     -34.44920000     -69.79560000
H      -43.26300000     -34.09870000     -68.70560000
C      -43.34850000     -33.10800000     -70.68380000
C      -42.36780000     -32.78400000     -71.57880000
C      -44.43520000     -32.12940000     -70.69310000
H      -41.42330000     -33.22770000     -71.58770000
C      -44.23500000     -31.15910000     -71.69910000
C      -45.71720000     -32.07910000     -70.09220000
C      -46.40970000     -30.96260000     -70.50100000
S      -42.68730000     -31.27570000     -72.52230000
S      -45.45650000     -29.93610000     -71.64440000
H      -47.45260000     -30.67170000     -70.23260000
