40
Properties=species:S:1:pos:R:3 #=T CELL(abcABC):=T 1.889726e+02=T 90.00000=T Traj:=T positionsangstrom=T Step:=T 0=T Bead:=T pbc="F F F"
C      -45.34400000     -35.06300000     -74.45810000
C      -44.08330000     -34.47910000     -74.09150000
C      -43.40020000     -35.05340000     -72.98630000
C      -43.99770000     -36.09430000     -72.20200000
C      -45.28950000     -36.53750000     -72.49290000
C      -45.98950000     -35.93740000     -73.59730000
H      -45.82220000     -34.81660000     -75.41810000
H      -42.45110000     -34.67860000     -72.57210000
H      -45.72250000     -37.46350000     -72.03390000
H      -47.06040000     -36.27700000     -73.89470000
C      -43.16960000     -36.58590000     -71.04970000
H      -42.22450000     -36.93560000     -71.37070000
H      -43.55050000     -37.31540000     -70.31290000
C      -43.37210000     -33.40820000     -74.88320000
H      -42.46720000     -33.70500000     -75.44290000
H      -44.08740000     -32.84590000     -75.51380000
S      -42.70590000     -35.08130000     -69.91040000
S      -42.66980000     -32.04180000     -73.80550000
C      -44.45180000     -34.63610000     -69.37180000
H      -45.01780000     -34.65800000     -70.29930000
H      -44.82920000     -35.41490000     -68.75480000
C      -44.27240000     -31.45600000     -73.05480000
H      -45.06210000     -31.41770000     -73.86230000
H      -44.12930000     -30.35600000     -72.90430000
C      -44.60630000     -32.06920000     -71.73680000
H      -44.49710000     -33.17520000     -71.66010000
H      -43.93050000     -31.57940000     -71.03010000
C      -44.57860000     -33.37710000     -68.62110000
H      -44.14520000     -32.47970000     -69.05700000
H      -44.41090000     -33.46070000     -67.61360000
C      -46.08560000     -33.02310000     -68.82210000
C      -47.07250000     -33.16620000     -67.84540000
C      -46.60240000     -32.32870000     -69.97760000
H      -46.82820000     -33.70310000     -66.91720000
C      -47.93740000     -31.90260000     -69.80720000
C      -46.06830000     -31.87770000     -71.24890000
C      -46.94370000     -31.13030000     -71.97540000
S      -48.60490000     -32.45560000     -68.26630000
S      -48.48550000     -30.90160000     -71.13900000
H      -46.90160000     -31.03810000     -73.04670000
