40
Properties=species:S:1:pos:R:3 #=T CELL(abcABC):=T 1.889726e+02=T 90.00000=T Traj:=T positionsangstrom=T Step:=T 0=T Bead:=T pbc="F F F"
C      -41.28380000     -34.27890000     -71.26320000
C      -42.41200000     -33.56000000     -70.76640000
C      -43.44230000     -33.18310000     -71.69280000
C      -43.38170000     -33.61850000     -73.03680000
C      -42.29810000     -34.40020000     -73.48710000
C      -41.23130000     -34.61680000     -72.60240000
H      -40.61410000     -34.61560000     -70.50300000
H      -44.19980000     -32.44760000     -71.42330000
H      -42.10860000     -34.70440000     -74.53190000
H      -40.35030000     -35.15920000     -73.04310000
C      -44.46440000     -33.22840000     -74.00520000
H      -44.08160000     -32.78270000     -74.94930000
H      -45.04090000     -32.33100000     -73.70160000
C      -42.56420000     -33.31860000     -69.29310000
H      -41.65580000     -33.44460000     -68.71230000
H      -43.00510000     -32.31390000     -69.16710000
S      -45.48300000     -34.60820000     -74.54480000
S      -43.64440000     -34.59010000     -68.41530000
C      -46.00490000     -35.40070000     -72.97840000
H      -46.07420000     -36.43980000     -73.10280000
H      -45.27910000     -35.24500000     -72.25200000
C      -45.02960000     -35.01440000     -69.61310000
H      -44.92130000     -35.98980000     -70.01160000
H      -44.90260000     -34.28110000     -70.39740000
C      -46.43190000     -34.75300000     -69.03870000
H      -46.98680000     -35.53340000     -69.56120000
H      -46.47080000     -34.96260000     -67.95470000
C      -47.36760000     -34.89440000     -72.39890000
H      -47.61170000     -35.53880000     -71.49020000
H      -48.20850000     -35.07420000     -73.13620000
C      -47.35850000     -33.46960000     -72.09110000
C      -47.72510000     -32.54750000     -73.04340000
C      -47.07270000     -32.91980000     -70.86080000
H      -48.03400000     -32.58390000     -74.10260000
C      -47.20350000     -31.50900000     -70.83040000
C      -46.82930000     -33.37630000     -69.52440000
C      -46.92990000     -32.40940000     -68.53720000
S      -47.79130000     -30.93400000     -72.33220000
S      -47.03830000     -30.81110000     -69.20740000
H      -46.61620000     -32.53240000     -67.44820000
