40
Properties=species:S:1:pos:R:3 #=T CELL(abcABC):=T 1.889726e+02=T 90.00000=T Traj:=T positionsangstrom=T Step:=T 0=T Bead:=T pbc="F F F"
C      -41.39970000     -34.35410000     -71.26140000
C      -42.48680000     -33.60610000     -70.79500000
C      -43.47790000     -33.09540000     -71.68220000
C      -43.36850000     -33.44760000     -73.10300000
C      -42.17440000     -34.02720000     -73.52290000
C      -41.21460000     -34.44360000     -72.65420000
H      -40.61370000     -34.58010000     -70.58350000
H      -44.39180000     -32.54570000     -71.36700000
H      -42.07510000     -34.21710000     -74.59220000
H      -40.36530000     -34.90510000     -73.14500000
C      -44.44470000     -33.06470000     -74.04080000
H      -44.07120000     -32.75640000     -74.96220000
H      -45.23470000     -32.45050000     -73.59290000
C      -42.69270000     -33.34970000     -69.34250000
H      -41.86520000     -33.18670000     -68.72950000
H      -43.29790000     -32.43320000     -69.19870000
S      -45.39350000     -34.58800000     -74.60540000
S      -43.60090000     -34.84550000     -68.50530000
C      -46.02330000     -35.38810000     -73.04300000
H      -46.22060000     -36.43780000     -73.36960000
H      -45.15980000     -35.40250000     -72.40960000
C      -45.01820000     -35.34500000     -69.55440000
H      -45.17690000     -36.47990000     -69.40280000
H      -44.70800000     -35.32270000     -70.62190000
C      -46.44040000     -34.83730000     -69.22620000
H      -47.17020000     -35.48290000     -69.74710000
H      -46.73600000     -35.06820000     -68.17880000
C      -47.30200000     -34.85670000     -72.39810000
H      -47.54760000     -35.45050000     -71.58230000
H      -48.07210000     -34.90110000     -73.18400000
C      -47.34170000     -33.44830000     -72.04410000
C      -47.60770000     -32.45190000     -72.93120000
C      -47.20750000     -32.86440000     -70.74910000
H      -47.72550000     -32.51520000     -74.03110000
C      -47.48900000     -31.49430000     -70.71110000
C      -46.72000000     -33.40830000     -69.46750000
C      -46.69630000     -32.43690000     -68.47240000
S      -47.62650000     -30.87990000     -72.29730000
S      -47.29550000     -30.82260000     -69.09120000
H      -46.12940000     -32.61670000     -67.56930000
