40
Properties=species:S:1:pos:R:3 #=T CELL(abcABC):=T 1.889726e+02=T 90.00000=T Traj:=T positionsangstrom=T Step:=T 0=T Bead:=T pbc="F F F"
C      -41.55940000     -34.16200000     -71.22360000
C      -42.77910000     -33.64290000     -70.83890000
C      -43.67700000     -33.20420000     -71.86210000
C      -43.31040000     -33.32970000     -73.23390000
C      -42.05980000     -33.87540000     -73.58500000
C      -41.20700000     -34.26090000     -72.60650000
H      -40.86650000     -34.62030000     -70.52650000
H      -44.64040000     -32.72110000     -71.73440000
H      -41.75060000     -33.86680000     -74.63380000
H      -40.22270000     -34.55120000     -72.83350000
C      -44.37850000     -32.88220000     -74.20060000
H      -43.93480000     -32.48230000     -75.15660000
H      -45.05720000     -32.10950000     -73.76570000
C      -43.21480000     -33.51170000     -69.37710000
H      -42.30900000     -33.16430000     -68.81910000
H      -44.05970000     -32.81750000     -69.22750000
S      -45.38150000     -34.39900000     -74.76000000
S      -43.52460000     -35.11790000     -68.50100000
C      -45.82410000     -35.32580000     -73.24430000
H      -45.95530000     -36.37910000     -73.50860000
H      -44.89840000     -35.30890000     -72.56840000
C      -45.04050000     -35.53600000     -69.45910000
H      -45.05260000     -36.62670000     -69.35780000
H      -44.77050000     -35.31810000     -70.44740000
C      -46.40800000     -34.87210000     -68.89770000
H      -47.27930000     -35.48080000     -69.15740000
H      -46.15460000     -34.93940000     -67.84190000
C      -47.10050000     -34.79010000     -72.59610000
H      -47.60190000     -35.41520000     -71.79720000
H      -47.80360000     -34.92280000     -73.48000000
C      -47.13050000     -33.38240000     -72.10060000
C      -47.65910000     -32.41940000     -72.88170000
C      -46.99340000     -32.90270000     -70.71180000
H      -47.81660000     -32.53750000     -73.91910000
C      -47.23990000     -31.57540000     -70.65860000
C      -46.70970000     -33.46510000     -69.39750000
C      -46.82490000     -32.49220000     -68.43730000
S      -47.79520000     -30.83040000     -72.06820000
S      -47.19640000     -30.92500000     -69.05590000
H      -46.85220000     -32.60440000     -67.39350000
