40
Properties=species:S:1:pos:R:3 #=T CELL(abcABC):=T 1.889726e+02=T 90.00000=T Traj:=T positionsangstrom=T Step:=T 0=T Bead:=T pbc="F F F"
C      -46.60960000     -32.70490000     -73.16590000
C      -47.20210000     -33.79650000     -72.45370000
C      -46.57280000     -35.03440000     -72.53340000
C      -45.25290000     -35.14560000     -73.03550000
C      -44.69380000     -34.11720000     -73.71440000
C      -45.38450000     -32.89500000     -73.75620000
H      -47.21650000     -31.83950000     -73.16820000
H      -46.99060000     -35.94380000     -72.14440000
H      -43.84360000     -34.11730000     -74.39830000
H      -44.89620000     -32.08790000     -74.27560000
C      -44.42040000     -36.45040000     -72.79670000
H      -44.03980000     -36.86400000     -73.72300000
H      -44.98510000     -37.29590000     -72.39090000
C      -48.51600000     -33.65930000     -71.79340000
H      -48.60780000     -32.59300000     -71.38610000
H      -49.40860000     -33.79320000     -72.53050000
S      -43.03440000     -36.03800000     -71.74320000
S      -48.82150000     -34.70130000     -70.24090000
C      -43.76420000     -35.71460000     -70.08960000
H      -44.86990000     -35.53460000     -70.19110000
H      -43.45290000     -36.53030000     -69.42000000
C      -48.00030000     -33.71090000     -68.96940000
H      -48.10950000     -34.24620000     -68.05490000
H      -48.44400000     -32.71630000     -68.93370000
C      -46.48290000     -33.51170000     -69.08620000
H      -45.96770000     -33.37750000     -68.05470000
H      -46.04910000     -34.45570000     -69.37940000
C      -43.14200000     -34.41440000     -69.47000000
H      -42.07440000     -34.46780000     -69.44700000
H      -43.51170000     -34.17410000     -68.41240000
C      -43.40440000     -33.15200000     -70.32670000
C      -42.33880000     -32.59040000     -70.92860000
C      -44.60810000     -32.34700000     -70.44810000
H      -41.26340000     -32.89580000     -70.75940000
C      -44.34510000     -31.16360000     -71.18740000
C      -45.99970000     -32.36990000     -69.99530000
C      -46.71640000     -31.22700000     -70.37120000
S      -42.67610000     -31.08160000     -71.79890000
S      -45.78700000     -30.11530000     -71.33920000
H      -47.79580000     -31.18080000     -70.23310000
