40
Properties=species:S:1:pos:R:3 #=T CELL(abcABC):=T 1.889726e+02=T 90.00000=T Traj:=T positionsangstrom=T Step:=T 0=T Bead:=T pbc="F F F"
C      -49.43390000     -35.07510000     -71.52090000
C      -48.61740000     -34.87040000     -70.40240000
C      -47.38110000     -35.59270000     -70.41180000
C      -46.97720000     -36.29830000     -71.56730000
C      -47.76570000     -36.31000000     -72.74160000
C      -49.00630000     -35.69690000     -72.66510000
H      -50.42910000     -34.64590000     -71.38490000
H      -46.73970000     -35.61470000     -69.54810000
H      -47.52890000     -36.89560000     -73.66550000
H      -49.72990000     -35.91170000     -73.53190000
C      -45.61590000     -36.97980000     -71.41510000
H      -45.80030000     -37.99030000     -71.14510000
H      -45.13350000     -36.56630000     -70.56600000
C      -48.95680000     -33.98510000     -69.23100000
H      -50.04950000     -33.98950000     -69.01310000
H      -48.46960000     -34.35980000     -68.29100000
S      -44.63990000     -36.86350000     -72.98660000
S      -48.54460000     -32.11840000     -69.43350000
C      -44.24890000     -35.03690000     -72.98010000
H      -43.94560000     -34.78270000     -74.04560000
H      -45.08940000     -34.47570000     -72.86360000
C      -46.67710000     -32.19650000     -69.46810000
H      -46.33640000     -32.88140000     -68.68960000
H      -46.40630000     -31.19940000     -69.04500000
C      -46.04550000     -32.35270000     -70.90130000
H      -45.99340000     -33.44110000     -71.18580000
H      -46.87610000     -32.06710000     -71.55970000
C      -43.31220000     -34.64370000     -71.84630000
H      -42.37460000     -35.32580000     -71.88020000
H      -43.81890000     -35.00990000     -70.91270000
C      -42.77410000     -33.22190000     -71.79100000
C      -41.39790000     -32.98140000     -71.87640000
C      -43.49840000     -32.02200000     -71.36430000
H      -40.71790000     -33.66390000     -72.21630000
C      -42.62990000     -30.87670000     -71.40440000
C      -44.78260000     -31.53060000     -71.07800000
C      -44.93060000     -30.16800000     -70.93300000
S      -40.99790000     -31.28860000     -71.73260000
S      -43.36010000     -29.34320000     -71.06320000
H      -45.79760000     -29.65880000     -70.62210000
