40
Properties=species:S:1:pos:R:3 #=T CELL(abcABC):=T 1.889726e+02=T 90.00000=T Traj:=T positionsangstrom=T Step:=T 0=T Bead:=T pbc="F F F"
C      -49.40880000     -35.00220000     -71.58950000
C      -48.59600000     -35.02390000     -70.41700000
C      -47.40920000     -35.72850000     -70.45710000
C      -46.92360000     -36.28090000     -71.63870000
C      -47.66540000     -36.21740000     -72.83020000
C      -48.96260000     -35.72030000     -72.72200000
H      -50.32240000     -34.42750000     -71.76330000
H      -46.80800000     -35.86290000     -69.51740000
H      -47.30090000     -36.63080000     -73.71040000
H      -49.62000000     -35.56550000     -73.51240000
C      -45.60770000     -37.01010000     -71.61140000
H      -45.73460000     -38.06930000     -71.47750000
H      -45.07140000     -36.70240000     -70.73350000
C      -48.87820000     -34.12410000     -69.21320000
H      -49.89730000     -34.35580000     -68.91750000
H      -48.23610000     -34.34970000     -68.38650000
S      -44.53510000     -36.72580000     -73.05650000
S      -48.57980000     -32.32560000     -69.52850000
C      -44.22010000     -34.93210000     -72.89490000
H      -43.47590000     -34.73440000     -73.57430000
H      -45.15770000     -34.33560000     -73.19060000
C      -46.75350000     -32.30140000     -69.67530000
H      -46.43050000     -33.33100000     -69.38970000
H      -46.30040000     -31.66390000     -68.90880000
C      -46.21690000     -31.99630000     -71.07800000
H      -46.35160000     -32.91700000     -71.65380000
H      -46.89500000     -31.21580000     -71.54030000
C      -43.63250000     -34.51420000     -71.51310000
H      -42.91550000     -35.33080000     -71.26850000
H      -44.48530000     -34.26570000     -70.83260000
C      -42.96270000     -33.19440000     -71.62840000
C      -41.62640000     -33.14980000     -71.89630000
C      -43.51330000     -31.82770000     -71.40450000
H      -40.92480000     -33.96990000     -72.11430000
C      -42.55610000     -30.86390000     -71.36390000
C      -44.85020000     -31.33070000     -71.04090000
C      -44.77660000     -30.01820000     -70.69440000
S      -41.02910000     -31.47160000     -71.85650000
S      -43.19630000     -29.35630000     -70.72590000
H      -45.69160000     -29.48630000     -70.37140000
