40
Properties=species:S:1:pos:R:3 #=T CELL(abcABC):=T 1.889726e+02=T 90.00000=T Traj:=T positionsangstrom=T Step:=T 0=T Bead:=T pbc="F F F"
C      -49.22240000     -34.85220000     -71.67710000
C      -48.40450000     -34.98250000     -70.48760000
C      -47.15980000     -35.66560000     -70.58050000
C      -46.89390000     -36.48590000     -71.69880000
C      -47.79120000     -36.41300000     -72.83220000
C      -48.88770000     -35.55810000     -72.85670000
H      -50.14030000     -34.22400000     -71.73000000
H      -46.47610000     -35.63830000     -69.76280000
H      -47.46380000     -36.94740000     -73.75770000
H      -49.60960000     -35.49860000     -73.71140000
C      -45.63390000     -37.35110000     -71.81270000
H      -46.01810000     -38.32680000     -72.09100000
H      -45.16210000     -37.48110000     -70.80900000
C      -48.87590000     -34.23230000     -69.29380000
H      -49.94700000     -34.40930000     -69.20100000
H      -48.41680000     -34.57990000     -68.38720000
S      -44.52710000     -36.77670000     -73.11830000
S      -48.52180000     -32.41550000     -69.43340000
C      -44.45130000     -34.91800000     -72.78890000
H      -43.76690000     -34.53580000     -73.70860000
H      -45.51120000     -34.55930000     -72.97510000
C      -46.65540000     -32.28440000     -69.57800000
H      -46.15840000     -33.13640000     -69.23820000
H      -46.52830000     -31.45440000     -68.85480000
C      -46.15850000     -31.93290000     -71.00800000
H      -46.09170000     -32.88960000     -71.65810000
H      -46.92430000     -31.33560000     -71.40850000
C      -43.78220000     -34.48370000     -71.51440000
H      -43.13520000     -35.27050000     -71.16760000
H      -44.42290000     -34.43490000     -70.63790000
C      -43.12100000     -33.14520000     -71.57520000
C      -41.77820000     -33.04600000     -71.92110000
C      -43.62160000     -31.86700000     -71.16370000
H      -41.14370000     -33.83760000     -72.34940000
C      -42.59340000     -30.86140000     -71.20890000
C      -44.84620000     -31.20220000     -70.89510000
C      -44.78440000     -29.85810000     -70.69910000
S      -41.07040000     -31.45780000     -71.82620000
S      -43.15260000     -29.24470000     -70.78820000
H      -45.66100000     -29.31190000     -70.37430000
