40
Properties=species:S:1:pos:R:3 #=T CELL(abcABC):=T 1.889726e+02=T 90.00000=T Traj:=T positionsangstrom=T Step:=T 0=T Bead:=T pbc="F F F"
C      -46.75220000     -32.50150000     -73.06580000
C      -47.23340000     -33.76850000     -72.64210000
C      -46.47280000     -34.93610000     -72.82880000
C      -45.13120000     -34.84230000     -73.33410000
C      -44.69680000     -33.63750000     -73.77510000
C      -45.49160000     -32.48660000     -73.70390000
H      -47.40650000     -31.67170000     -72.92170000
H      -46.94890000     -35.94400000     -72.52380000
H      -43.62050000     -33.45130000     -74.01180000
H      -45.03070000     -31.53420000     -74.08460000
C      -44.21120000     -36.02940000     -73.39800000
H      -43.56900000     -36.07890000     -74.32550000
H      -44.74860000     -36.96920000     -73.51440000
C      -48.66530000     -33.89040000     -72.03240000
H      -49.06870000     -32.86670000     -71.89370000
H      -49.24180000     -34.39650000     -72.80860000
S      -43.12200000     -36.19330000     -71.94280000
S      -48.88180000     -34.68440000     -70.44540000
C      -44.20750000     -35.94130000     -70.49580000
H      -45.14370000     -35.49830000     -70.93130000
H      -44.34750000     -36.89960000     -69.97370000
C      -48.30240000     -33.39110000     -69.22980000
H      -48.57710000     -33.80520000     -68.27750000
H      -48.72380000     -32.37080000     -69.33140000
C      -46.75370000     -33.32170000     -69.05070000
H      -46.46590000     -33.29080000     -67.94160000
H      -46.45540000     -34.34430000     -69.26500000
C      -43.76150000     -34.87140000     -69.53030000
H      -42.80910000     -35.19500000     -68.92620000
H      -44.49650000     -34.81090000     -68.64980000
C      -43.57420000     -33.48530000     -70.15240000
C      -42.34980000     -32.96860000     -70.53110000
C      -44.56490000     -32.46180000     -70.27410000
H      -41.35140000     -33.40600000     -70.35580000
C      -44.16530000     -31.30490000     -70.90100000
C      -45.95650000     -32.28800000     -69.83730000
C      -46.46310000     -31.09300000     -70.27090000
S      -42.48820000     -31.36030000     -71.34760000
S      -45.21720000     -30.02220000     -70.94570000
H      -47.43690000     -30.63390000     -70.08250000
