40
Properties=species:S:1:pos:R:3 #=T CELL(abcABC):=T 1.889726e+02=T 90.00000=T Traj:=T positionsangstrom=T Step:=T 0=T Bead:=T pbc="F F F"
C      -46.79060000     -32.56980000     -73.06800000
C      -47.30670000     -33.79390000     -72.67490000
C      -46.47750000     -34.92070000     -72.70230000
C      -45.13600000     -34.79980000     -73.15150000
C      -44.61850000     -33.53300000     -73.51400000
C      -45.44250000     -32.45000000     -73.48730000
H      -47.42520000     -31.69890000     -73.07270000
H      -46.83560000     -35.89110000     -72.36520000
H      -43.62010000     -33.47710000     -73.92600000
H      -45.09060000     -31.41460000     -73.69120000
C      -44.27860000     -36.02310000     -73.37400000
H      -43.68210000     -35.95180000     -74.22060000
H      -44.94080000     -36.89590000     -73.40780000
C      -48.71370000     -33.95810000     -72.24620000
H      -49.31520000     -33.02610000     -72.21010000
H      -49.24330000     -34.60980000     -72.90400000
S      -43.17590000     -36.33540000     -71.90000000
S      -48.84450000     -34.73900000     -70.44640000
C      -44.25090000     -35.98490000     -70.39550000
H      -45.26450000     -35.83710000     -70.69940000
H      -44.25850000     -36.87970000     -69.75870000
C      -48.20230000     -33.38330000     -69.37330000
H      -48.72420000     -33.47950000     -68.44690000
H      -48.67140000     -32.54260000     -69.84530000
C      -46.69480000     -33.39950000     -69.24950000
H      -46.44460000     -33.45720000     -68.21540000
H      -46.33190000     -34.31950000     -69.74240000
C      -43.65620000     -34.77300000     -69.63540000
H      -42.70480000     -35.06740000     -69.36290000
H      -44.13350000     -34.64640000     -68.65550000
C      -43.56690000     -33.47150000     -70.34750000
C      -42.30680000     -33.00380000     -70.73900000
C      -44.55040000     -32.41100000     -70.35840000
H      -41.31520000     -33.56750000     -70.79910000
C      -44.11520000     -31.17020000     -70.81380000
C      -45.99810000     -32.25740000     -69.89520000
C      -46.57530000     -31.08950000     -70.30240000
S      -42.31500000     -31.30790000     -71.21360000
S      -45.39630000     -29.95270000     -70.97170000
H      -47.58800000     -30.72790000     -69.98980000
