40
Properties=species:S:1:pos:R:3 #=T CELL(abcABC):=T 1.889726e+02=T 90.00000=T Traj:=T positionsangstrom=T Step:=T 0=T Bead:=T pbc="F F F"
C      -46.00110000     -32.39530000     -73.53800000
C      -46.73160000     -33.59360000     -73.33540000
C      -45.99280000     -34.72670000     -73.01720000
C      -44.60850000     -34.74620000     -73.29320000
C      -43.88640000     -33.58020000     -73.46660000
C      -44.63170000     -32.37040000     -73.50070000
H      -46.67660000     -31.51540000     -73.62640000
H      -46.54190000     -35.68600000     -72.91660000
H      -42.81330000     -33.59670000     -73.48950000
H      -44.14430000     -31.39550000     -73.68910000
C      -43.75390000     -36.12640000     -73.25440000
H      -42.96180000     -36.23280000     -74.02690000
H      -44.46770000     -36.95080000     -73.39720000
C      -48.25880000     -33.50660000     -73.09600000
H      -48.42690000     -32.45980000     -72.79240000
H      -48.68950000     -33.66070000     -74.09090000
S      -42.96860000     -36.22720000     -71.60780000
S      -48.94900000     -34.62570000     -71.94180000
C      -44.45870000     -36.14590000     -70.46010000
H      -45.34330000     -35.92120000     -71.05770000
H      -44.62530000     -37.09470000     -69.89590000
C      -48.85980000     -33.37030000     -70.54120000
H      -49.69340000     -33.63860000     -69.90690000
H      -49.03960000     -32.33880000     -70.88740000
C      -47.50940000     -33.47750000     -69.68060000
H      -47.80120000     -33.39770000     -68.56510000
H      -47.14770000     -34.47200000     -69.87070000
C      -44.26010000     -35.06220000     -69.36960000
H      -43.48900000     -35.40460000     -68.69860000
H      -45.20010000     -35.02740000     -68.78720000
C      -43.99710000     -33.64560000     -69.78820000
C      -42.68740000     -33.18560000     -69.91690000
C      -44.98190000     -32.53180000     -70.01990000
H      -41.78640000     -33.72800000     -69.92090000
C      -44.35920000     -31.31960000     -70.13730000
C      -46.44340000     -32.38250000     -69.88120000
C      -46.77810000     -31.04250000     -70.02050000
S      -42.59940000     -31.44940000     -70.29260000
S      -45.36360000     -29.96580000     -70.18600000
H      -47.73580000     -30.51600000     -69.92910000
