40
Properties=species:S:1:pos:R:3 #=T CELL(abcABC):=T 1.889726e+02=T 90.00000=T Traj:=T positionsangstrom=T Step:=T 0=T Bead:=T pbc="F F F"
C      -45.60760000     -34.72340000     -73.74530000
C      -44.27340000     -34.38440000     -73.93310000
C      -43.26140000     -34.97060000     -73.15290000
C      -43.59850000     -35.97020000     -72.22100000
C      -44.90350000     -36.49810000     -72.24490000
C      -45.92250000     -35.82780000     -72.95830000
H      -46.32630000     -34.31080000     -74.43580000
H      -42.25090000     -34.54360000     -73.12130000
H      -45.22450000     -37.29000000     -71.54910000
H      -46.94480000     -36.18710000     -72.75300000
C      -42.61190000     -36.60830000     -71.30770000
H      -41.60610000     -36.43270000     -71.65010000
H      -42.83960000     -37.67900000     -71.03320000
C      -43.87040000     -33.41440000     -75.03270000
H      -43.19030000     -33.82440000     -75.75960000
H      -44.70270000     -32.86610000     -75.50940000
S      -42.72450000     -35.56770000     -69.72990000
S      -43.06610000     -31.92460000     -74.21070000
C      -44.48300000     -34.91330000     -69.60960000
H      -44.95050000     -34.70920000     -70.60640000
H      -45.09170000     -35.63550000     -68.92360000
C      -44.51440000     -31.39310000     -73.32770000
H      -45.44380000     -31.61540000     -73.87680000
H      -44.56190000     -30.36260000     -73.38240000
C      -44.71140000     -31.85240000     -71.85470000
H      -44.41030000     -32.91580000     -71.80330000
H      -44.07600000     -31.22070000     -71.19900000
C      -44.50140000     -33.49710000     -68.87320000
H      -43.80760000     -32.84890000     -69.35120000
H      -44.28730000     -33.72930000     -67.83370000
C      -45.89370000     -32.94610000     -68.90190000
C      -46.76170000     -33.00280000     -67.81860000
C      -46.54910000     -32.27260000     -70.04710000
H      -46.55510000     -33.51480000     -66.88120000
C      -47.86960000     -31.88690000     -69.73400000
C      -46.12570000     -31.75950000     -71.37080000
C      -47.13680000     -31.18170000     -72.07990000
S      -48.29840000     -32.32860000     -68.09410000
S      -48.61720000     -31.07000000     -71.05580000
H      -47.20300000     -30.76720000     -73.11480000
