40
Properties=species:S:1:pos:R:3 #=T CELL(abcABC):=T 1.889726e+02=T 90.00000=T Traj:=T positionsangstrom=T Step:=T 0=T Bead:=T pbc="F F F"
C      -45.65530000     -31.57550000     -73.17170000
C      -46.46680000     -32.69300000     -73.35780000
C      -45.75570000     -33.92980000     -73.44760000
C      -44.36360000     -33.99500000     -73.47110000
C      -43.59400000     -32.84860000     -73.41390000
C      -44.27670000     -31.59580000     -73.29780000
H      -46.22260000     -30.63460000     -73.09870000
H      -46.38640000     -34.79360000     -73.26910000
H      -42.51960000     -32.80220000     -73.53760000
H      -43.69090000     -30.65730000     -73.15670000
C      -43.59990000     -35.37450000     -73.41790000
H      -42.68300000     -35.23670000     -73.87710000
H      -44.14070000     -36.05160000     -74.07320000
C      -47.96360000     -32.61260000     -73.53440000
H      -48.36550000     -31.71270000     -73.15310000
H      -48.28640000     -32.60820000     -74.54300000
S      -43.11770000     -36.01990000     -71.76490000
S      -48.89460000     -33.99910000     -72.63860000
C      -44.56350000     -36.35830000     -70.79340000
H      -45.54190000     -35.96170000     -71.22070000
H      -44.59140000     -37.41380000     -70.56030000
C      -48.86740000     -33.76730000     -70.79720000
H      -49.66650000     -34.44770000     -70.47230000
H      -49.13990000     -32.74850000     -70.63440000
C      -47.62780000     -33.97790000     -69.95180000
H      -48.03960000     -34.06480000     -68.94670000
H      -47.13400000     -34.93060000     -70.17370000
C      -44.56170000     -35.76160000     -69.41230000
H      -43.87930000     -36.25450000     -68.69330000
H      -45.50030000     -36.09170000     -68.96470000
C      -44.29400000     -34.24800000     -69.44530000
C      -42.96710000     -33.91500000     -69.27910000
C      -45.13250000     -33.15670000     -69.77430000
H      -42.20760000     -34.61190000     -69.20030000
C      -44.41830000     -31.93360000     -69.82420000
C      -46.57610000     -32.90340000     -69.97020000
C      -46.82440000     -31.54920000     -70.06220000
S      -42.71740000     -32.11760000     -69.45300000
S      -45.43420000     -30.53640000     -70.05860000
H      -47.81780000     -31.20820000     -70.31640000
