40
Properties=species:S:1:pos:R:3 #=T CELL(abcABC):=T 1.889726e+02=T 90.00000=T Traj:=T positionsangstrom=T Step:=T 0=T Bead:=T pbc="F F F"
C      -45.38080000     -31.71360000     -73.05710000
C      -46.23910000     -32.74600000     -73.41640000
C      -45.61340000     -34.00440000     -73.65750000
C      -44.24900000     -34.20230000     -73.51240000
C      -43.44440000     -33.12940000     -73.20500000
C      -44.00510000     -31.84400000     -73.04390000
H      -45.70680000     -30.71330000     -72.82170000
H      -46.21990000     -34.87400000     -73.71420000
H      -42.42820000     -33.32960000     -72.91640000
H      -43.34500000     -30.99150000     -72.81010000
C      -43.71160000     -35.63190000     -73.64420000
H      -42.70490000     -35.63430000     -74.11340000
H      -44.33550000     -36.25030000     -74.17050000
C      -47.71890000     -32.48580000     -73.55490000
H      -48.06140000     -31.52030000     -73.19140000
H      -48.06120000     -32.35060000     -74.57360000
S      -43.32640000     -36.41840000     -72.03560000
S      -48.83310000     -33.83150000     -72.82860000
C      -44.88590000     -36.25680000     -71.05600000
H      -45.56490000     -35.65010000     -71.66250000
H      -45.30480000     -37.22690000     -70.92280000
C      -48.82090000     -33.24480000     -71.07580000
H      -49.77260000     -33.67730000     -70.62290000
H      -48.83400000     -32.19450000     -71.10140000
C      -47.64250000     -33.80020000     -70.20230000
H      -48.04880000     -34.06370000     -69.19790000
H      -47.29710000     -34.74130000     -70.58800000
C      -44.76260000     -35.68400000     -69.66260000
H      -44.01420000     -36.29640000     -69.09470000
H      -45.63110000     -35.94170000     -69.04730000
C      -44.35190000     -34.19870000     -69.58090000
C      -43.06400000     -33.86680000     -69.18950000
C      -45.12190000     -33.00420000     -69.84180000
H      -42.26770000     -34.56770000     -68.98940000
C      -44.43900000     -31.87510000     -69.65610000
C      -46.54810000     -32.78660000     -69.97560000
C      -46.88060000     -31.44880000     -69.86960000
S      -42.80630000     -32.10720000     -69.10330000
S      -45.44540000     -30.45640000     -69.60930000
H      -47.83880000     -30.98520000     -69.82960000
