40
Properties=species:S:1:pos:R:3 #=T CELL(abcABC):=T 1.889726e+02=T 90.00000=T Traj:=T positionsangstrom=T Step:=T 0=T Bead:=T pbc="F F F"
C      -45.05440000     -31.65760000     -72.95510000
C      -46.02970000     -32.60690000     -73.31160000
C      -45.62150000     -33.90000000     -73.49690000
C      -44.25720000     -34.32170000     -73.46330000
C      -43.34580000     -33.31260000     -72.97620000
C      -43.70880000     -32.02410000     -72.78870000
H      -45.32940000     -30.61610000     -72.81110000
H      -46.41670000     -34.62440000     -73.72730000
H      -42.31320000     -33.64370000     -72.60190000
H      -42.94580000     -31.31420000     -72.45420000
C      -43.92400000     -35.81060000     -73.56710000
H      -42.98840000     -36.02570000     -74.19730000
H      -44.74940000     -36.38950000     -74.05570000
C      -47.46350000     -32.09860000     -73.53440000
H      -47.79700000     -31.21240000     -72.98110000
H      -47.66160000     -31.76870000     -74.60000000
S      -43.62780000     -36.57730000     -71.94420000
S      -48.68890000     -33.45310000     -73.10110000
C      -45.25030000     -36.19610000     -71.13330000
H      -45.71990000     -35.41870000     -71.69910000
H      -45.91230000     -37.10620000     -71.27610000
C      -48.90590000     -33.34030000     -71.25510000
H      -49.67050000     -34.12180000     -71.03650000
H      -49.28330000     -32.35920000     -70.95670000
C      -47.74560000     -33.64330000     -70.29340000
H      -48.21860000     -33.69140000     -69.26770000
H      -47.46780000     -34.67010000     -70.49970000
C      -44.91190000     -35.72420000     -69.59500000
H      -44.20730000     -36.33450000     -69.07920000
H      -45.84760000     -35.88700000     -69.00620000
C      -44.37960000     -34.31510000     -69.60070000
C      -43.05130000     -34.02840000     -69.29530000
C      -45.26830000     -33.12320000     -69.71850000
H      -42.16580000     -34.63450000     -69.24050000
C      -44.47020000     -31.97240000     -69.51050000
C      -46.60130000     -32.70190000     -70.16470000
C      -46.79680000     -31.35110000     -70.03960000
S      -42.73640000     -32.28480000     -69.17900000
S      -45.36270000     -30.43520000     -69.53340000
H      -47.71470000     -30.75480000     -70.10770000
