40
Properties=species:S:1:pos:R:3 #=T CELL(abcABC):=T 1.889726e+02=T 90.00000=T Traj:=T positionsangstrom=T Step:=T 0=T Bead:=T pbc="F F F"
C      -45.53500000     -34.93410000     -73.94450000
C      -44.20990000     -34.57150000     -74.02320000
C      -43.28330000     -35.11130000     -73.07940000
C      -43.73640000     -36.09620000     -72.17190000
C      -45.09810000     -36.51000000     -72.15740000
C      -45.94990000     -35.91560000     -73.07350000
H      -46.22440000     -34.47330000     -74.64080000
H      -42.23900000     -34.97620000     -73.31410000
H      -45.38060000     -37.37510000     -71.53020000
H      -47.02750000     -36.22940000     -73.04540000
C      -42.78000000     -36.63030000     -71.15480000
H      -41.74270000     -36.68610000     -71.45600000
H      -43.09620000     -37.61850000     -70.78030000
C      -43.69740000     -33.53450000     -75.05170000
H      -42.76640000     -33.92030000     -75.39150000
H      -44.42410000     -33.39380000     -75.88740000
S      -42.65520000     -35.54320000     -69.65440000
S      -43.27020000     -31.78180000     -74.32370000
C      -44.37750000     -34.86470000     -69.50320000
H      -44.91570000     -34.83950000     -70.49040000
H      -44.99030000     -35.49900000     -68.87820000
C      -44.87150000     -31.25380000     -73.41910000
H      -45.58350000     -31.89050000     -73.87320000
H      -44.91830000     -30.13900000     -73.52570000
C      -44.73920000     -31.64180000     -71.96120000
H      -44.35000000     -32.70260000     -71.88300000
H      -43.94150000     -31.10230000     -71.52550000
C      -44.42270000     -33.39310000     -68.89070000
H      -43.74380000     -32.70840000     -69.55590000
H      -44.00830000     -33.28170000     -67.88470000
C      -45.75970000     -32.80150000     -68.93300000
C      -46.57930000     -33.06530000     -67.82160000
C      -46.38460000     -32.11800000     -70.01130000
H      -46.16400000     -33.49420000     -66.91700000
C      -47.75500000     -31.96730000     -69.70880000
C      -46.04770000     -31.55680000     -71.26090000
C      -47.16190000     -31.02700000     -71.90790000
S      -48.20480000     -32.41540000     -68.09080000
S      -48.67400000     -31.17660000     -71.05220000
H      -47.29860000     -30.60230000     -72.88950000
