40
Properties=species:S:1:pos:R:3 #=T CELL(abcABC):=T 1.889726e+02=T 90.00000=T Traj:=T positionsangstrom=T Step:=T 0=T Bead:=T pbc="F F F"
C      -44.92210000     -31.57080000     -73.06900000
C      -45.90870000     -32.47730000     -73.36550000
C      -45.51270000     -33.84250000     -73.56930000
C      -44.21380000     -34.26600000     -73.41320000
C      -43.21240000     -33.31790000     -73.06770000
C      -43.60730000     -31.97700000     -72.91780000
H      -45.21380000     -30.57180000     -72.98000000
H      -46.24090000     -34.52600000     -73.87980000
H      -42.12330000     -33.52280000     -73.05000000
H      -42.82630000     -31.29940000     -72.60400000
C      -43.89910000     -35.71660000     -73.62020000
H      -42.95190000     -35.80880000     -74.16240000
H      -44.64690000     -36.11360000     -74.27710000
C      -47.38050000     -31.99230000     -73.57680000
H      -47.44600000     -31.04020000     -73.05690000
H      -47.46740000     -32.00320000     -74.64390000
S      -43.69490000     -36.70670000     -72.01140000
S      -48.68030000     -33.22710000     -73.00350000
C      -45.14350000     -36.40670000     -71.11250000
H      -45.82490000     -35.65080000     -71.54240000
H      -45.63750000     -37.36710000     -71.05180000
C      -48.86800000     -32.97320000     -71.13820000
H      -49.84910000     -33.47090000     -70.84260000
H      -49.01980000     -31.96770000     -71.06890000
C      -47.75460000     -33.66940000     -70.32230000
H      -48.20610000     -34.05500000     -69.43080000
H      -47.38930000     -34.48960000     -70.87620000
C      -45.10360000     -35.82250000     -69.59600000
H      -44.55740000     -36.50720000     -68.91760000
H      -46.14620000     -35.79590000     -69.26790000
C      -44.56220000     -34.37490000     -69.49180000
C      -43.20160000     -34.14140000     -69.29010000
C      -45.29450000     -33.16460000     -69.58930000
H      -42.39800000     -34.86400000     -69.33020000
C      -44.49060000     -32.02410000     -69.31110000
C      -46.65730000     -32.72990000     -69.98420000
C      -46.78950000     -31.39600000     -69.95360000
S      -42.84070000     -32.41910000     -69.12980000
S      -45.32470000     -30.51970000     -69.68090000
H      -47.63530000     -30.78960000     -70.16190000
