40
Properties=species:S:1:pos:R:3 #=T CELL(abcABC):=T 1.889726e+02=T 90.00000=T Traj:=T positionsangstrom=T Step:=T 0=T Bead:=T pbc="F F F"
C      -44.62950000     -31.40010000     -72.91590000
C      -45.69160000     -32.26600000     -73.31080000
C      -45.38960000     -33.63330000     -73.50150000
C      -44.10480000     -34.15710000     -73.37000000
C      -43.06090000     -33.25950000     -73.06750000
C      -43.31080000     -31.88190000     -72.81810000
H      -44.87170000     -30.30830000     -72.77950000
H      -46.29930000     -34.38830000     -73.65460000
H      -42.02500000     -33.72810000     -73.04100000
H      -42.49810000     -31.18130000     -72.52830000
C      -43.87160000     -35.64000000     -73.58640000
H      -42.88030000     -35.85920000     -74.03780000
H      -44.68600000     -36.03140000     -74.17150000
C      -47.13540000     -31.83390000     -73.49320000
H      -47.36960000     -30.84310000     -73.00740000
H      -47.23800000     -31.79840000     -74.56070000
S      -43.84080000     -36.57060000     -71.97140000
S      -48.46940000     -33.02490000     -73.09720000
C      -45.61650000     -36.52070000     -71.23550000
H      -46.13770000     -35.81560000     -71.90010000
H      -46.05970000     -37.54450000     -71.32820000
C      -48.87310000     -32.80870000     -71.30930000
H      -49.92630000     -33.10960000     -71.15860000
H      -48.94360000     -31.75650000     -71.16200000
C      -48.00980000     -33.45330000     -70.25910000
H      -48.61430000     -33.53940000     -69.29470000
H      -47.66800000     -34.48210000     -70.51540000
C      -45.51190000     -35.97780000     -69.80730000
H      -44.83120000     -36.62830000     -69.21250000
H      -46.45290000     -36.00100000     -69.25140000
C      -44.88540000     -34.57780000     -69.66980000
C      -43.49980000     -34.49700000     -69.37920000
C      -45.43590000     -33.23750000     -69.69690000
H      -42.77950000     -35.29950000     -69.44640000
C      -44.53690000     -32.23270000     -69.50500000
C      -46.71100000     -32.64950000     -69.90640000
C      -46.71690000     -31.24710000     -69.82360000
S      -42.89050000     -32.88230000     -69.30030000
S      -45.12210000     -30.64290000     -69.36530000
H      -47.63860000     -30.65690000     -69.81640000
