40
Properties=species:S:1:pos:R:3 #=T CELL(abcABC):=T 1.889726e+02=T 90.00000=T Traj:=T positionsangstrom=T Step:=T 0=T Bead:=T pbc="F F F"
C      -42.06970000     -33.16010000     -73.20700000
C      -42.85000000     -33.26580000     -72.06400000
C      -43.87380000     -32.30690000     -71.83380000
C      -44.11300000     -31.27010000     -72.69940000
C      -43.33770000     -31.22080000     -73.85840000
C      -42.44290000     -32.23800000     -74.17600000
H      -41.32750000     -33.90690000     -73.37890000
H      -44.50380000     -32.45580000     -70.95680000
H      -43.58780000     -30.50470000     -74.65710000
H      -41.80790000     -32.18920000     -75.07290000
C      -45.21990000     -30.30520000     -72.40700000
H      -44.95020000     -29.21490000     -72.61310000
H      -45.50360000     -30.24850000     -71.34880000
C      -42.67740000     -34.50610000     -71.25770000
H      -41.65370000     -34.79840000     -71.03830000
H      -43.30490000     -34.36250000     -70.36420000
S      -46.66040000     -30.73780000     -73.53420000
S      -43.21640000     -36.00570000     -72.18930000
C      -46.97020000     -32.59780000     -73.34520000
H      -47.41420000     -32.93130000     -74.35560000
H      -46.00520000     -33.06930000     -73.26320000
C      -44.94540000     -35.57610000     -72.79530000
H      -44.98330000     -36.19320000     -73.69310000
H      -44.85560000     -34.48740000     -73.12290000
C      -46.04670000     -36.00280000     -71.81090000
H      -46.97900000     -35.77890000     -72.30620000
H      -45.79910000     -37.12740000     -71.70550000
C      -47.89990000     -32.97100000     -72.14370000
H      -48.28170000     -33.97250000     -72.35870000
H      -48.76430000     -32.28770000     -72.16960000
C      -47.36930000     -32.94150000     -70.71000000
C      -47.50920000     -31.90170000     -69.89660000
C      -46.70660000     -34.05380000     -70.06310000
H      -47.91950000     -30.92260000     -70.23180000
C      -46.51370000     -33.79960000     -68.68960000
C      -46.16140000     -35.38880000     -70.45390000
C      -45.63020000     -36.01660000     -69.37710000
S      -46.87180000     -32.14590000     -68.27570000
S      -45.76470000     -35.12450000     -67.83940000
H      -45.05090000     -36.97590000     -69.28910000
