40
Properties=species:S:1:pos:R:3 #=T CELL(abcABC):=T 1.889726e+02=T 90.00000=T Traj:=T positionsangstrom=T Step:=T 0=T Bead:=T pbc="F F F"
C      -41.97100000     -33.12800000     -73.17740000
C      -42.78110000     -33.32550000     -72.05710000
C      -43.76540000     -32.38980000     -71.82370000
C      -44.18860000     -31.42670000     -72.76570000
C      -43.41730000     -31.31520000     -73.92500000
C      -42.31380000     -32.14610000     -74.14240000
H      -41.20570000     -33.94320000     -73.40630000
H      -44.28420000     -32.49950000     -70.88300000
H      -43.76410000     -30.66100000     -74.73380000
H      -41.59970000     -31.94660000     -74.94150000
C      -45.34380000     -30.42900000     -72.50380000
H      -44.95860000     -29.42720000     -72.68340000
H      -45.51380000     -30.43880000     -71.40460000
C      -42.66820000     -34.48790000     -71.10850000
H      -41.64660000     -34.66720000     -70.89200000
H      -43.17140000     -34.31430000     -70.11370000
S      -46.86820000     -30.53300000     -73.44640000
S      -43.18710000     -35.94210000     -72.09030000
C      -47.17610000     -32.37840000     -73.37620000
H      -47.94160000     -32.64210000     -74.10240000
H      -46.33350000     -32.98280000     -73.63870000
C      -44.84630000     -35.37050000     -72.64080000
H      -45.04320000     -35.60520000     -73.71780000
H      -44.88120000     -34.31240000     -72.62000000
C      -46.09000000     -35.95530000     -71.93060000
H      -47.01370000     -35.81430000     -72.53950000
H      -46.01230000     -37.01940000     -71.90160000
C      -47.99270000     -32.85820000     -72.10840000
H      -48.41370000     -33.83940000     -72.33880000
H      -48.85410000     -32.24600000     -72.06040000
C      -47.21400000     -32.91870000     -70.73740000
C      -47.34000000     -31.88060000     -69.90110000
C      -46.58020000     -34.05230000     -70.13240000
H      -47.78160000     -30.92700000     -70.14110000
C      -46.28170000     -33.84610000     -68.76420000
C      -46.21650000     -35.42300000     -70.53330000
C      -45.75850000     -36.15840000     -69.48990000
S      -46.82990000     -32.28850000     -68.22640000
S      -45.73320000     -35.29000000     -67.96140000
H      -45.59660000     -37.26570000     -69.50850000
