40
Properties=species:S:1:pos:R:3 #=T CELL(abcABC):=T 1.889726e+02=T 90.00000=T Traj:=T positionsangstrom=T Step:=T 0=T Bead:=T pbc="F F F"
C      -45.47560000     -35.00440000     -74.16840000
C      -44.11220000     -34.59360000     -74.09500000
C      -43.34670000     -35.07760000     -73.00370000
C      -43.88430000     -36.04110000     -72.06230000
C      -45.22040000     -36.49170000     -72.28670000
C      -46.00870000     -35.92260000     -73.29590000
H      -46.09370000     -34.53350000     -74.93480000
H      -42.34460000     -34.69610000     -72.75050000
H      -45.62600000     -37.20160000     -71.62690000
H      -46.88590000     -36.43940000     -73.57420000
C      -43.04340000     -36.68930000     -71.04170000
H      -42.14200000     -37.17620000     -71.48350000
H      -43.60720000     -37.55680000     -70.73320000
C      -43.59580000     -33.56150000     -75.12550000
H      -42.72030000     -33.96430000     -75.70330000
H      -44.33510000     -33.53300000     -75.90980000
S      -42.59720000     -35.51460000     -69.62420000
S      -43.26230000     -31.88310000     -74.45380000
C      -44.23280000     -34.71570000     -69.18570000
H      -44.93420000     -35.08750000     -69.92390000
H      -44.38690000     -35.27580000     -68.21660000
C      -44.82410000     -31.39720000     -73.55240000
H      -45.70640000     -31.82690000     -74.07860000
H      -44.87890000     -30.32870000     -73.73530000
C      -44.79560000     -31.65290000     -72.04820000
H      -44.35020000     -32.64330000     -71.82970000
H      -44.13570000     -30.84670000     -71.61850000
C      -44.21770000     -33.18950000     -69.04010000
H      -43.65790000     -32.71010000     -69.84810000
H      -43.63300000     -32.92230000     -68.17640000
C      -45.68800000     -32.77170000     -68.95780000
C      -46.49010000     -33.10030000     -67.87480000
C      -46.43740000     -31.97900000     -69.92230000
H      -46.13620000     -33.53890000     -66.96420000
C      -47.79620000     -31.90730000     -69.60910000
C      -46.12250000     -31.52530000     -71.31530000
C      -47.29750000     -31.04000000     -71.82470000
S      -48.13220000     -32.60540000     -68.14370000
S      -48.73050000     -31.04100000     -70.76200000
H      -47.46730000     -30.56390000     -72.73150000
