40
Properties=species:S:1:pos:R:3 #=T CELL(abcABC):=T 1.889726e+02=T 90.00000=T Traj:=T positionsangstrom=T Step:=T 0=T Bead:=T pbc="F F F"
C      -42.16260000     -32.98240000     -73.25940000
C      -42.91780000     -33.14700000     -72.06380000
C      -43.97100000     -32.19040000     -71.87200000
C      -44.14940000     -31.01860000     -72.67380000
C      -43.44640000     -30.94790000     -73.88530000
C      -42.56530000     -31.98820000     -74.20400000
H      -41.45900000     -33.72940000     -73.56240000
H      -44.63810000     -32.22600000     -70.99470000
H      -43.79370000     -30.20320000     -74.60090000
H      -41.91920000     -31.79080000     -75.12260000
C      -45.25890000     -30.05010000     -72.26460000
H      -45.01360000     -28.94280000     -72.56740000
H      -45.41470000     -30.08170000     -71.16190000
C      -42.88210000     -34.39240000     -71.13970000
H      -41.91160000     -34.56710000     -70.71210000
H      -43.60060000     -34.15120000     -70.26380000
S      -46.88640000     -30.39960000     -73.05440000
S      -43.43690000     -35.95230000     -71.97780000
C      -47.03800000     -32.35700000     -73.12240000
H      -47.45460000     -32.48310000     -74.17070000
H      -46.04530000     -32.74950000     -73.13970000
C      -45.00860000     -35.67990000     -72.98520000
H      -44.88410000     -36.30870000     -73.82110000
H      -45.02850000     -34.57380000     -73.28540000
C      -46.23010000     -36.06490000     -72.08530000
H      -47.11260000     -35.77270000     -72.51210000
H      -46.33130000     -37.21470000     -72.06400000
C      -47.95350000     -32.90560000     -72.06340000
H      -48.48370000     -33.80010000     -72.44450000
H      -48.84650000     -32.17700000     -71.90130000
C      -47.27490000     -33.10080000     -70.75690000
C      -47.33890000     -32.07750000     -69.78760000
C      -46.51620000     -34.24020000     -70.25100000
H      -47.96530000     -31.16790000     -69.85380000
C      -46.25360000     -34.06680000     -68.91740000
C      -46.07310000     -35.52080000     -70.67720000
C      -45.46540000     -36.30400000     -69.68890000
S      -46.57980000     -32.48320000     -68.31420000
S      -45.47740000     -35.43130000     -68.15150000
H      -45.00240000     -37.27190000     -69.74620000
