40
Properties=species:S:1:pos:R:3 #=T CELL(abcABC):=T 1.889726e+02=T 90.00000=T Traj:=T positionsangstrom=T Step:=T 0=T Bead:=T pbc="F F F"
C      -42.40660000     -33.04550000     -73.28790000
C      -43.07600000     -33.20320000     -72.04930000
C      -44.07240000     -32.20940000     -71.76750000
C      -44.32730000     -31.04450000     -72.57590000
C      -43.53780000     -30.88140000     -73.70000000
C      -42.62660000     -31.90850000     -74.01560000
H      -41.73870000     -33.88320000     -73.62770000
H      -44.66830000     -32.32730000     -70.90190000
H      -43.43420000     -29.92880000     -74.24980000
H      -42.24570000     -31.91850000     -75.02280000
C      -45.32600000     -29.94540000     -72.24090000
H      -45.10450000     -29.08700000     -72.76920000
H      -45.49760000     -29.73100000     -71.20480000
C      -42.97350000     -34.42930000     -71.19740000
H      -41.94790000     -34.56690000     -70.89370000
H      -43.55760000     -34.42540000     -70.27760000
S      -47.05690000     -30.38600000     -72.95370000
S      -43.20510000     -35.92270000     -72.34680000
C      -47.07880000     -32.15010000     -73.16630000
H      -47.75730000     -32.30240000     -74.03980000
H      -46.07440000     -32.57120000     -73.49470000
C      -44.89180000     -35.50370000     -72.94900000
H      -45.00160000     -35.92350000     -74.00190000
H      -44.90720000     -34.46900000     -73.04390000
C      -46.06130000     -36.05360000     -72.16750000
H      -46.96170000     -35.82240000     -72.84250000
H      -46.05100000     -37.15520000     -72.11160000
C      -47.73290000     -33.04200000     -72.11240000
H      -47.84950000     -34.05740000     -72.48510000
H      -48.72310000     -32.68220000     -72.07490000
C      -47.15300000     -33.09110000     -70.75640000
C      -47.27460000     -32.07900000     -69.78510000
C      -46.48810000     -34.27440000     -70.15590000
H      -47.67890000     -31.03680000     -69.96960000
C      -46.15920000     -34.05040000     -68.81710000
C      -46.05000000     -35.54660000     -70.72320000
C      -45.55460000     -36.35910000     -69.72910000
S      -46.70970000     -32.54440000     -68.18690000
S      -45.32010000     -35.49220000     -68.17050000
H      -45.13260000     -37.39810000     -69.80040000
