40
Properties=species:S:1:pos:R:3 #=T CELL(abcABC):=T 1.889726e+02=T 90.00000=T Traj:=T positionsangstrom=T Step:=T 0=T Bead:=T pbc="F F F"
C      -49.53730000     -35.01810000     -72.04870000
C      -48.80070000     -34.33590000     -71.07640000
C      -47.82880000     -34.97810000     -70.33650000
C      -47.50690000     -36.31450000     -70.61880000
C      -48.18510000     -36.97750000     -71.64190000
C      -49.31310000     -36.41540000     -72.23770000
H      -50.28500000     -34.46980000     -72.60160000
H      -47.25680000     -34.31570000     -69.62350000
H      -47.87820000     -38.00140000     -71.85240000
H      -49.99230000     -36.86920000     -72.99380000
C      -46.28920000     -37.06050000     -69.98210000
H      -46.47170000     -38.12100000     -69.93900000
H      -45.97420000     -36.88250000     -68.95520000
C      -49.15300000     -32.95430000     -70.74850000
H      -50.21950000     -32.90110000     -70.50430000
H      -48.61500000     -32.70450000     -69.86120000
S      -44.74150000     -36.97080000     -71.10210000
S      -48.69100000     -31.64910000     -72.04960000
C      -44.22850000     -35.28980000     -70.83670000
H      -45.05570000     -34.70440000     -70.34150000
H      -43.37160000     -35.32250000     -70.11370000
C      -47.02430000     -30.94580000     -71.29440000
H      -47.41860000     -30.83370000     -70.26930000
H      -46.85650000     -30.04210000     -71.73680000
C      -45.89310000     -31.94300000     -71.50730000
H      -46.14000000     -32.83510000     -70.96490000
H      -45.89090000     -32.06510000     -72.57220000
C      -43.76280000     -34.57690000     -72.08640000
H      -44.63500000     -34.13620000     -72.70480000
H      -43.38590000     -35.27590000     -72.74540000
C      -42.84430000     -33.42190000     -71.80530000
C      -41.47840000     -33.52390000     -71.88390000
C      -43.30400000     -32.06980000     -71.45810000
H      -41.01480000     -34.44960000     -72.24370000
C      -42.18330000     -31.25350000     -71.29770000
C      -44.52700000     -31.40420000     -71.10680000
C      -44.26140000     -30.09170000     -70.84460000
S      -40.68160000     -31.99420000     -71.58790000
S      -42.51620000     -29.63500000     -70.75360000
H      -45.13310000     -29.39940000     -70.68920000
