40
Properties=species:S:1:pos:R:3 #=T CELL(abcABC):=T 1.889726e+02=T 90.00000=T Traj:=T positionsangstrom=T Step:=T 0=T Bead:=T pbc="F F F"
C      -42.44210000     -32.31350000     -73.72290000
C      -42.84770000     -33.08440000     -72.60970000
C      -43.58720000     -32.49950000     -71.58200000
C      -44.19110000     -31.23470000     -71.71980000
C      -43.82030000     -30.45820000     -72.85530000
C      -42.97190000     -31.00350000     -73.87170000
H      -41.82890000     -32.68950000     -74.56560000
H      -43.75230000     -33.19490000     -70.73360000
H      -44.23210000     -29.47730000     -72.99570000
H      -42.71790000     -30.40020000     -74.77640000
C      -45.27740000     -30.78300000     -70.78280000
H      -45.20010000     -29.75340000     -70.38190000
H      -45.30440000     -31.46960000     -69.87030000
C      -42.33710000     -34.52010000     -72.52660000
H      -41.30140000     -34.61740000     -72.85940000
H      -42.30820000     -34.75860000     -71.43850000
S      -47.00430000     -30.59160000     -71.67770000
S      -43.39270000     -35.70610000     -73.50070000
C      -47.30760000     -32.17670000     -72.65750000
H      -47.73740000     -32.00480000     -73.66950000
H      -46.39400000     -32.74900000     -72.94520000
C      -45.11530000     -34.95240000     -73.50810000
H      -45.61260000     -35.09340000     -74.47050000
H      -45.21100000     -33.89230000     -73.21490000
C      -45.89870000     -35.72790000     -72.46010000
H      -46.97740000     -35.64720000     -72.77630000
H      -45.73310000     -36.84470000     -72.57960000
C      -48.29850000     -33.14550000     -71.93470000
H      -48.45860000     -33.93750000     -72.70050000
H      -49.25120000     -32.65450000     -71.64040000
C      -47.69760000     -33.62040000     -70.62640000
C      -48.18510000     -32.95800000     -69.50680000
C      -46.41300000     -34.27790000     -70.33610000
H      -49.01330000     -32.29010000     -69.32510000
C      -46.10680000     -34.22310000     -68.98350000
C      -45.64030000     -35.28930000     -71.05530000
C      -44.74570000     -35.84330000     -70.17100000
S      -47.20460000     -33.24920000     -68.03510000
S      -44.63280000     -35.10210000     -68.59780000
H      -44.02140000     -36.56050000     -70.40010000
