40
Properties=species:S:1:pos:R:3 #=T CELL(abcABC):=T 1.889726e+02=T 90.00000=T Traj:=T positionsangstrom=T Step:=T 0=T Bead:=T pbc="F F F"
C      -49.53320000     -35.10420000     -71.61920000
C      -48.72370000     -34.40970000     -70.72910000
C      -47.69330000     -35.12120000     -70.09250000
C      -47.35080000     -36.44160000     -70.49530000
C      -48.14140000     -37.08360000     -71.45410000
C      -49.17530000     -36.31240000     -72.09490000
H      -50.38510000     -34.58490000     -72.04360000
H      -46.95730000     -34.66840000     -69.35720000
H      -47.91970000     -38.09610000     -71.76360000
H      -49.74870000     -36.84850000     -72.84590000
C      -46.06120000     -37.05000000     -69.97920000
H      -46.18030000     -38.11260000     -69.88510000
H      -45.81410000     -36.68350000     -68.97550000
C      -49.06580000     -32.98220000     -70.45570000
H      -50.13470000     -32.92200000     -70.22030000
H      -48.41860000     -32.56580000     -69.69370000
S      -44.60590000     -36.88210000     -71.17070000
S      -48.75890000     -31.97700000     -71.97240000
C      -44.45820000     -35.04460000     -71.11270000
H      -45.49120000     -34.83570000     -70.91470000
H      -43.80910000     -34.81540000     -70.19360000
C      -47.19440000     -31.05080000     -71.61400000
H      -47.10970000     -30.61680000     -70.70670000
H      -47.02730000     -30.26820000     -72.33790000
C      -45.93850000     -31.97390000     -71.78140000
H      -46.15520000     -32.74610000     -71.04910000
H      -45.88370000     -32.39550000     -72.76990000
C      -43.77820000     -34.42740000     -72.34030000
H      -44.59400000     -34.25850000     -73.12670000
H      -43.17170000     -35.16420000     -72.73330000
C      -42.85010000     -33.27130000     -71.98640000
C      -41.51400000     -33.50910000     -71.72280000
C      -43.30480000     -31.95850000     -71.66410000
H      -40.98100000     -34.47170000     -71.86000000
C      -42.21130000     -31.11970000     -71.35820000
C      -44.57020000     -31.29060000     -71.51070000
C      -44.41370000     -30.02280000     -71.05150000
S      -40.64060000     -31.99690000     -71.36160000
S      -42.69710000     -29.53890000     -70.88050000
H      -45.22050000     -29.41470000     -70.68530000
