40
Properties=species:S:1:pos:R:3 #=T CELL(abcABC):=T 1.889726e+02=T 90.00000=T Traj:=T positionsangstrom=T Step:=T 0=T Bead:=T pbc="F F F"
C      -49.60500000     -35.49780000     -69.85340000
C      -48.50360000     -34.64430000     -69.91950000
C      -47.28610000     -35.28370000     -69.85190000
C      -47.09690000     -36.66840000     -69.81330000
C      -48.22470000     -37.50430000     -69.75140000
C      -49.44710000     -36.89880000     -69.82330000
H      -50.61740000     -35.16030000     -69.81550000
H      -46.42280000     -34.66920000     -70.14680000
H      -48.20210000     -38.52720000     -70.01330000
H      -50.31080000     -37.50560000     -69.86000000
C      -45.61980000     -37.21150000     -69.94980000
H      -45.66740000     -38.28930000     -70.03640000
H      -44.93520000     -36.96560000     -69.14160000
C      -48.63660000     -33.17740000     -69.94850000
H      -49.51610000     -32.85180000     -69.40880000
H      -47.66030000     -32.80780000     -69.58030000
S      -44.71460000     -36.73960000     -71.52240000
S      -48.81570000     -32.59660000     -71.62450000
C      -43.94100000     -35.01270000     -71.29740000
H      -44.58290000     -34.27270000     -70.92250000
H      -43.04300000     -35.14590000     -70.60940000
C      -47.42020000     -31.41430000     -71.60350000
H      -47.33050000     -31.06500000     -70.60880000
H      -47.66600000     -30.58500000     -72.29370000
C      -46.00430000     -31.98960000     -72.00890000
H      -45.92370000     -32.87680000     -71.37430000
H      -46.06130000     -32.41050000     -73.06580000
C      -43.40430000     -34.43520000     -72.60650000
H      -44.14750000     -34.37010000     -73.31400000
H      -42.70070000     -35.08550000     -73.11340000
C      -42.72080000     -33.08130000     -72.38340000
C      -41.37190000     -33.01170000     -72.43430000
C      -43.37820000     -31.79900000     -72.00440000
H      -40.63700000     -33.78300000     -72.55360000
C      -42.43400000     -30.81600000     -71.93500000
C      -44.76050000     -31.18440000     -71.90680000
C      -44.68780000     -29.81820000     -71.81210000
S      -40.79970000     -31.31030000     -72.14630000
S      -43.03750000     -29.20450000     -71.76110000
H      -45.53100000     -29.20930000     -71.76590000
