40
Properties=species:S:1:pos:R:3 #=T CELL(abcABC):=T 1.889726e+02=T 90.00000=T Traj:=T positionsangstrom=T Step:=T 0=T Bead:=T pbc="F F F"
C      -42.17280000     -33.17630000     -73.90270000
C      -42.53790000     -32.16090000     -73.02340000
C      -42.43540000     -32.34960000     -71.63490000
C      -41.96900000     -33.55730000     -71.09400000
C      -41.51350000     -34.51010000     -71.96080000
C      -41.55590000     -34.29440000     -73.35590000
H      -42.33240000     -33.05200000     -74.98940000
H      -42.67190000     -31.51420000     -70.93830000
H      -41.26170000     -35.54240000     -71.66210000
H      -41.16600000     -35.09820000     -73.91210000
C      -41.90140000     -33.67820000     -69.62510000
H      -42.55980000     -32.96050000     -69.09660000
H      -40.94990000     -33.40930000     -69.26360000
C      -43.02530000     -30.87990000     -73.59030000
H      -43.24760000     -30.18810000     -72.75830000
H      -42.34780000     -30.31520000     -74.24850000
S      -42.46220000     -35.33770000     -68.98850000
S      -44.54250000     -31.30200000     -74.61720000
C      -44.24780000     -35.46370000     -69.51710000
H      -44.27620000     -36.02780000     -70.46940000
H      -44.78680000     -36.08450000     -68.73970000
C      -46.03330000     -31.36160000     -73.47040000
H      -46.95390000     -31.38550000     -74.13440000
H      -46.17060000     -30.39320000     -73.05030000
C      -46.03020000     -32.41540000     -72.38680000
H      -45.54240000     -33.35580000     -72.75960000
H      -45.36080000     -32.14180000     -71.52770000
C      -45.02370000     -34.12160000     -69.72970000
H      -44.68460000     -33.79820000     -70.66100000
H      -44.76330000     -33.36710000     -68.96310000
C      -46.58010000     -34.25650000     -69.71130000
C      -47.25730000     -34.76120000     -68.66380000
C      -47.53410000     -33.61800000     -70.67470000
H      -46.79340000     -35.30180000     -67.83980000
C      -48.86320000     -33.87790000     -70.34720000
C      -47.35950000     -32.76590000     -71.83840000
C      -48.52980000     -32.25450000     -72.23150000
S      -49.04690000     -34.61210000     -68.75600000
S      -49.93750000     -32.95480000     -71.42200000
H      -48.79480000     -31.59090000     -73.05870000
