40
Properties=species:S:1:pos:R:3 #=T CELL(abcABC):=T 1.889726e+02=T 90.00000=T Traj:=T positionsangstrom=T Step:=T 0=T Bead:=T pbc="F F F"
C      -41.95190000     -32.98080000     -73.90530000
C      -42.50020000     -32.03510000     -73.06770000
C      -42.50400000     -32.26220000     -71.66890000
C      -41.93740000     -33.43970000     -71.11150000
C      -41.55220000     -34.44240000     -72.00250000
C      -41.48350000     -34.21520000     -73.38610000
H      -41.93460000     -32.75540000     -74.95250000
H      -43.07940000     -31.56390000     -70.91680000
H      -41.12670000     -35.31510000     -71.63430000
H      -41.14890000     -35.04710000     -74.01910000
C      -41.94490000     -33.65410000     -69.53700000
H      -42.28970000     -32.73660000     -68.96160000
H      -40.91080000     -33.71220000     -69.18050000
C      -43.26740000     -30.79930000     -73.48190000
H      -43.65380000     -30.26490000     -72.66810000
H      -42.63410000     -30.13940000     -74.10890000
S      -42.60470000     -35.25910000     -68.91240000
S      -44.60280000     -31.33460000     -74.75360000
C      -44.34100000     -35.53170000     -69.55720000
H      -44.37510000     -36.19550000     -70.40300000
H      -44.86290000     -36.11380000     -68.79560000
C      -46.21650000     -31.62250000     -73.83920000
H      -46.92960000     -32.09150000     -74.58580000
H      -46.44270000     -30.69790000     -73.42540000
C      -46.04320000     -32.63560000     -72.67260000
H      -45.61220000     -33.53990000     -73.03620000
H      -45.43160000     -32.20900000     -71.95280000
C      -45.02500000     -34.23360000     -69.78650000
H      -44.64490000     -33.75990000     -70.74250000
H      -44.70190000     -33.50870000     -69.01940000
C      -46.53540000     -34.32540000     -69.68950000
C      -47.22630000     -34.91920000     -68.63230000
C      -47.42350000     -33.65090000     -70.64780000
H      -46.82480000     -35.45060000     -67.71860000
C      -48.72190000     -33.58240000     -70.09590000
C      -47.31800000     -32.96660000     -71.89510000
C      -48.49630000     -32.43570000     -72.30490000
S      -48.95320000     -34.58480000     -68.67440000
S      -49.83280000     -32.89760000     -71.21150000
H      -48.89610000     -31.84210000     -73.08230000
