40
Properties=species:S:1:pos:R:3 #=T CELL(abcABC):=T 1.889726e+02=T 90.00000=T Traj:=T positionsangstrom=T Step:=T 0=T Bead:=T pbc="F F F"
C      -44.74190000     -36.38190000     -69.55940000
C      -44.33110000     -35.31790000     -68.80110000
C      -43.16910000     -34.55860000     -69.13600000
C      -42.45600000     -35.03140000     -70.26680000
C      -42.83150000     -36.16480000     -70.99320000
C      -44.02560000     -36.83220000     -70.66590000
H      -45.70170000     -36.82890000     -69.19200000
H      -42.95310000     -33.60730000     -68.72630000
H      -42.40390000     -36.53960000     -71.94830000
H      -44.25690000     -37.75220000     -71.31960000
C      -41.35760000     -34.13980000     -70.71160000
H      -40.42260000     -34.62060000     -71.01300000
H      -41.01370000     -33.50350000     -69.85770000
C      -45.28430000     -34.80250000     -67.68660000
H      -45.07980000     -35.17090000     -66.69870000
H      -45.00050000     -33.74070000     -67.62320000
S      -41.79820000     -33.12090000     -72.20070000
S      -47.06050000     -34.91660000     -67.89430000
C      -42.70300000     -31.64480000     -71.64090000
H      -42.18360000     -31.13960000     -70.84230000
H      -42.70600000     -30.95210000     -72.38060000
C      -47.51400000     -34.44910000     -69.65870000
H      -48.58740000     -34.48000000     -69.61370000
H      -47.05040000     -35.20760000     -70.30910000
C      -47.03130000     -32.95130000     -69.98970000
H      -47.55660000     -32.31090000     -69.22070000
H      -45.94140000     -32.98570000     -69.80010000
C      -44.15550000     -31.90510000     -71.29580000
H      -44.45130000     -31.01830000     -70.67180000
H      -44.28880000     -32.74390000     -70.60400000
C      -45.09640000     -31.85390000     -72.56190000
C      -44.75850000     -31.53940000     -73.85500000
C      -46.50200000     -32.07040000     -72.40510000
H      -43.74440000     -31.57760000     -74.22800000
C      -47.19070000     -31.76370000     -73.61350000
C      -47.42730000     -32.50130000     -71.40260000
C      -48.77180000     -32.49440000     -71.79710000
S      -46.16150000     -31.19330000     -74.93660000
S      -48.91980000     -32.02840000     -73.48430000
H      -49.58360000     -32.89810000     -71.18400000
