40
Properties=species:S:1:pos:R:3 #=T CELL(abcABC):=T 1.889726e+02=T 90.00000=T Traj:=T positionsangstrom=T Step:=T 0=T Bead:=T pbc="F F F"
C      -42.08120000     -33.21250000     -73.83390000
C      -42.57230000     -32.21270000     -72.99210000
C      -42.55330000     -32.47670000     -71.59720000
C      -41.99710000     -33.67240000     -71.12680000
C      -41.54470000     -34.68800000     -71.98030000
C      -41.64980000     -34.47460000     -73.34370000
H      -42.14820000     -33.03000000     -74.91720000
H      -42.94710000     -31.74720000     -70.79570000
H      -41.05630000     -35.57960000     -71.52750000
H      -41.27000000     -35.20910000     -73.94580000
C      -41.88040000     -33.88850000     -69.57670000
H      -42.26860000     -33.02810000     -68.99760000
H      -40.84970000     -34.12060000     -69.33120000
C      -43.23830000     -30.91510000     -73.46960000
H      -43.81640000     -30.44800000     -72.66690000
H      -42.55720000     -30.16020000     -73.93110000
S      -42.65790000     -35.44860000     -69.01620000
S      -44.56290000     -31.36040000     -74.75390000
C      -44.40010000     -35.48970000     -69.76520000
H      -44.37030000     -35.98090000     -70.73760000
H      -45.12600000     -36.06400000     -69.16250000
C      -46.07090000     -31.45690000     -73.75170000
H      -47.00470000     -31.54980000     -74.34760000
H      -46.18920000     -30.53370000     -73.17290000
C      -46.09930000     -32.69050000     -72.74200000
H      -45.87950000     -33.64410000     -73.23400000
H      -45.22900000     -32.48740000     -72.15060000
C      -44.93700000     -34.07410000     -69.90600000
H      -44.69640000     -33.79810000     -70.91820000
H      -44.51530000     -33.34750000     -69.24560000
C      -46.43410000     -34.02430000     -69.68100000
C      -47.14390000     -34.61540000     -68.62300000
C      -47.35200000     -33.40200000     -70.57030000
H      -46.53120000     -34.98720000     -67.81100000
C      -48.62480000     -33.51810000     -70.09530000
C      -47.35630000     -32.72060000     -71.90150000
C      -48.63290000     -32.48310000     -72.33320000
S      -48.86060000     -34.37210000     -68.64090000
S      -49.88440000     -32.76400000     -71.10800000
H      -48.97340000     -32.02710000     -73.26880000
