40
Properties=species:S:1:pos:R:3 #=T CELL(abcABC):=T 1.889726e+02=T 90.00000=T Traj:=T positionsangstrom=T Step:=T 0=T Bead:=T pbc="F F F"
C      -49.06740000     -32.10180000     -70.82070000
C      -48.43230000     -33.09170000     -70.07490000
C      -48.18290000     -34.35350000     -70.72940000
C      -48.26680000     -34.56270000     -72.09560000
C      -48.87410000     -33.50170000     -72.82650000
C      -49.32080000     -32.29140000     -72.21440000
H      -49.36060000     -31.22370000     -70.29340000
H      -47.81430000     -35.19420000     -70.15090000
H      -48.87150000     -33.63150000     -73.86350000
H      -49.81010000     -31.56370000     -72.86350000
C      -47.75710000     -35.83600000     -72.80370000
H      -47.20350000     -35.45360000     -73.70090000
H      -48.60040000     -36.41630000     -73.19570000
C      -48.12040000     -32.83800000     -68.59050000
H      -49.03880000     -32.51500000     -68.10140000
H      -47.68640000     -33.75110000     -68.07450000
S      -46.81460000     -37.02600000     -71.82340000
S      -46.95530000     -31.37340000     -68.44040000
C      -45.15350000     -36.33440000     -72.01020000
H      -44.46360000     -37.10090000     -71.73150000
H      -44.83970000     -36.20880000     -73.04120000
C      -45.31780000     -31.89730000     -69.24680000
H      -45.07100000     -32.90930000     -69.08860000
H      -44.68490000     -31.26080000     -68.65510000
C      -45.31510000     -31.61590000     -70.77420000
H      -45.99040000     -32.37290000     -71.30050000
H      -45.79980000     -30.68440000     -70.95760000
C      -44.83550000     -35.05090000     -71.27000000
H      -44.58430000     -35.23490000     -70.25110000
H      -45.71770000     -34.34360000     -71.41740000
C      -43.49260000     -34.37060000     -71.83910000
C      -42.44570000     -35.10460000     -72.30940000
C      -43.25410000     -32.93530000     -71.77970000
H      -42.27840000     -36.17630000     -72.50660000
C      -42.00310000     -32.62930000     -72.22870000
C      -43.89440000     -31.74870000     -71.34440000
C      -43.14000000     -30.59620000     -71.33040000
S      -41.05490000     -34.08170000     -72.68700000
S      -41.53230000     -30.90060000     -72.00060000
H      -43.50450000     -29.56420000     -71.15670000
