40
Properties=species:S:1:pos:R:3 #=T CELL(abcABC):=T 1.889726e+02=T 90.00000=T Traj:=T positionsangstrom=T Step:=T 0=T Bead:=T pbc="F F F"
C      -48.97330000     -32.06120000     -70.76270000
C      -48.35170000     -33.03860000     -70.00790000
C      -47.97200000     -34.24500000     -70.71400000
C      -48.24530000     -34.49070000     -72.11190000
C      -48.89750000     -33.51140000     -72.79280000
C      -49.30800000     -32.29990000     -72.11160000
H      -49.16580000     -31.17110000     -70.24380000
H      -47.48210000     -35.07220000     -70.17450000
H      -49.15590000     -33.77820000     -73.79170000
H      -49.97070000     -31.62470000     -72.62220000
C      -47.81480000     -35.68470000     -72.86670000
H      -47.12840000     -35.33650000     -73.62960000
H      -48.61760000     -36.21490000     -73.45350000
C      -47.98820000     -32.82310000     -68.61220000
H      -48.83640000     -32.65130000     -68.01090000
H      -47.50920000     -33.68570000     -68.14130000
S      -46.80270000     -36.96220000     -71.91440000
S      -46.97030000     -31.34010000     -68.43010000
C      -45.07030000     -36.25970000     -72.18420000
H      -44.39870000     -37.10850000     -71.89550000
H      -44.95450000     -36.00360000     -73.17390000
C      -45.41680000     -31.94590000     -69.23590000
H      -45.15910000     -33.00530000     -68.98800000
H      -44.65790000     -31.34390000     -68.68980000
C      -45.35600000     -31.65430000     -70.73930000
H      -46.08030000     -32.32930000     -71.21930000
H      -45.64240000     -30.64430000     -70.92920000
C      -44.86090000     -34.99700000     -71.36390000
H      -44.99830000     -35.19550000     -70.26540000
H      -45.64270000     -34.26910000     -71.67950000
C      -43.50750000     -34.44440000     -71.61240000
C      -42.43270000     -35.09000000     -72.18720000
C      -43.18340000     -33.00790000     -71.53320000
H      -42.46830000     -36.14630000     -72.45370000
C      -41.89720000     -32.70930000     -72.00260000
C      -43.94450000     -31.79660000     -71.22230000
C      -43.24040000     -30.66720000     -71.61950000
S      -41.10880000     -34.11600000     -72.61510000
S      -41.62580000     -31.02570000     -72.20880000
H      -43.59150000     -29.62220000     -71.33630000
