40
Properties=species:S:1:pos:R:3 #=T CELL(abcABC):=T 1.889726e+02=T 90.00000=T Traj:=T positionsangstrom=T Step:=T 0=T Bead:=T pbc="F F F"
C      -42.05440000     -33.62500000     -74.15950000
C      -42.32770000     -32.54980000     -73.35000000
C      -42.20200000     -32.67620000     -71.95400000
C      -41.89410000     -33.92560000     -71.41500000
C      -41.71300000     -34.99520000     -72.30570000
C      -41.76640000     -34.86980000     -73.66030000
H      -42.07840000     -33.44180000     -75.26610000
H      -42.48750000     -31.82620000     -71.32370000
H      -41.49780000     -36.02650000     -71.89000000
H      -41.62580000     -35.74670000     -74.25680000
C      -41.76720000     -34.03060000     -69.96280000
H      -42.07100000     -33.12830000     -69.53890000
H      -40.73660000     -34.33550000     -69.66990000
C      -42.81960000     -31.25880000     -73.94360000
H      -42.87930000     -30.43050000     -73.24490000
H      -42.22190000     -30.98080000     -74.87870000
S      -42.88200000     -35.38490000     -69.39460000
S      -44.63570000     -31.58130000     -74.60960000
C      -44.48200000     -34.86860000     -69.99360000
H      -44.41920000     -34.49290000     -71.04030000
H      -45.18720000     -35.72080000     -70.06900000
C      -45.60030000     -31.26570000     -73.07730000
H      -46.54480000     -30.85200000     -73.42160000
H      -45.07500000     -30.42070000     -72.49720000
C      -45.84190000     -32.52390000     -72.16960000
H      -45.58310000     -33.48360000     -72.65960000
H      -45.10980000     -32.33630000     -71.36780000
C      -45.14360000     -33.75410000     -69.08170000
H      -44.67370000     -32.79700000     -69.36890000
H      -44.77370000     -33.89830000     -68.05570000
C      -46.65310000     -33.79350000     -69.17490000
C      -47.40010000     -34.20700000     -68.10050000
C      -47.49040000     -33.32930000     -70.32920000
H      -47.02120000     -34.45710000     -67.16920000
C      -48.83150000     -33.48250000     -70.04420000
C      -47.23210000     -32.70370000     -71.57910000
C      -48.38530000     -32.28480000     -72.23380000
S      -49.10140000     -34.15900000     -68.43190000
S      -49.80400000     -32.82040000     -71.40430000
H      -48.37620000     -31.81630000     -73.21490000
