40
Properties=species:S:1:pos:R:3 #=T CELL(abcABC):=T 1.889726e+02=T 90.00000=T Traj:=T positionsangstrom=T Step:=T 0=T Bead:=T pbc="F F F"
C      -41.92340000     -33.74400000     -74.29230000
C      -42.40780000     -32.71590000     -73.47620000
C      -42.43590000     -32.88430000     -72.09790000
C      -41.99900000     -34.04850000     -71.47720000
C      -41.45460000     -35.03430000     -72.34550000
C      -41.49680000     -34.93870000     -73.70860000
H      -41.86250000     -33.52710000     -75.33880000
H      -42.93120000     -32.17280000     -71.43860000
H      -41.10800000     -35.89990000     -71.87580000
H      -41.10290000     -35.76460000     -74.30670000
C      -41.76760000     -34.16400000     -70.00560000
H      -41.93590000     -33.16350000     -69.47000000
H      -40.77610000     -34.47880000     -69.80150000
C      -42.81710000     -31.40410000     -73.98680000
H      -42.65690000     -30.54550000     -73.25300000
H      -42.23200000     -31.21000000     -74.88150000
S      -42.92950000     -35.46160000     -69.29370000
S      -44.60780000     -31.28520000     -74.53630000
C      -44.66010000     -35.02060000     -69.77710000
H      -44.75960000     -34.98970000     -70.89530000
H      -45.21330000     -35.91450000     -69.38670000
C      -45.61760000     -31.20030000     -73.02310000
H      -46.68730000     -30.99660000     -73.38790000
H      -45.24580000     -30.33240000     -72.43420000
C      -45.80210000     -32.55210000     -72.19200000
H      -45.64830000     -33.33050000     -72.97940000
H      -44.98170000     -32.62280000     -71.47040000
C      -45.18860000     -33.85310000     -68.91970000
H      -44.64700000     -32.94740000     -69.22090000
H      -44.95490000     -34.19320000     -67.90360000
C      -46.64650000     -33.73440000     -69.05500000
C      -47.51370000     -34.05690000     -68.04540000
C      -47.40230000     -33.35450000     -70.29110000
H      -47.33010000     -34.51140000     -67.07540000
C      -48.78780000     -33.41590000     -70.10980000
C      -47.15220000     -32.73030000     -71.60380000
C      -48.29960000     -32.46420000     -72.33660000
S      -49.25490000     -33.80100000     -68.49880000
S      -49.71750000     -32.87920000     -71.44860000
H      -48.29800000     -32.12520000     -73.32490000
