40
Properties=species:S:1:pos:R:3 #=T CELL(abcABC):=T 1.889726e+02=T 90.00000=T Traj:=T positionsangstrom=T Step:=T 0=T Bead:=T pbc="F F F"
C      -48.78360000     -31.93940000     -71.04790000
C      -48.45920000     -32.98310000     -70.16550000
C      -48.16960000     -34.26430000     -70.62950000
C      -48.45460000     -34.66460000     -71.93740000
C      -48.84790000     -33.65020000     -72.84110000
C      -49.00540000     -32.30190000     -72.30440000
H      -49.00930000     -31.02090000     -70.67480000
H      -47.81590000     -34.99550000     -69.94410000
H      -49.17730000     -33.78540000     -73.85510000
H      -49.41980000     -31.60960000     -73.01900000
C      -48.28950000     -36.15130000     -72.48120000
H      -48.30360000     -36.12700000     -73.59940000
H      -49.19340000     -36.68900000     -72.21290000
C      -48.30800000     -32.68990000     -68.67450000
H      -49.23750000     -32.16560000     -68.45350000
H      -48.34130000     -33.61090000     -68.15170000
S      -46.74370000     -36.90260000     -71.87510000
S      -46.88880000     -31.67130000     -68.27640000
C      -45.34870000     -36.01140000     -72.74040000
H      -44.59470000     -36.68970000     -73.15560000
H      -45.65380000     -35.47910000     -73.64940000
C      -45.57990000     -32.37510000     -69.31780000
H      -45.92730000     -33.45660000     -69.44360000
H      -44.68300000     -32.32400000     -68.67440000
C      -45.34960000     -31.63950000     -70.73820000
H      -46.01270000     -31.98560000     -71.48730000
H      -45.69760000     -30.63050000     -70.57840000
C      -44.81380000     -34.94170000     -71.76610000
H      -44.85000000     -35.37990000     -70.68880000
H      -45.59200000     -34.12170000     -71.65080000
C      -43.46310000     -34.33120000     -72.09410000
C      -42.33430000     -34.99380000     -72.55170000
C      -43.17100000     -32.96830000     -71.65750000
H      -42.28010000     -35.94660000     -73.03960000
C      -41.84740000     -32.61470000     -71.92920000
C      -43.95220000     -31.77120000     -71.26000000
C      -43.16950000     -30.65480000     -71.24170000
S      -40.94380000     -33.92420000     -72.55660000
S      -41.47890000     -30.84790000     -71.74940000
H      -43.49310000     -29.68740000     -70.80180000
