40
Properties=species:S:1:pos:R:3 #=T CELL(abcABC):=T 1.889726e+02=T 90.00000=T Traj:=T positionsangstrom=T Step:=T 0=T Bead:=T pbc="F F F"
C      -45.78710000     -34.88870000     -74.41200000
C      -44.45360000     -34.46570000     -74.27960000
C      -43.68470000     -34.99020000     -73.20560000
C      -44.22680000     -35.95300000     -72.26590000
C      -45.61550000     -36.12090000     -72.32160000
C      -46.30860000     -35.83630000     -73.51030000
H      -46.29560000     -34.52830000     -75.31300000
H      -42.63320000     -34.77530000     -73.10650000
H      -46.01850000     -37.05790000     -71.74080000
H      -47.37430000     -36.17840000     -73.58480000
C      -43.31670000     -36.65350000     -71.32970000
H      -42.49310000     -37.01980000     -71.98150000
H      -43.76840000     -37.58700000     -70.90040000
C      -43.80830000     -33.54150000     -75.29160000
H      -42.93080000     -33.94260000     -75.64720000
H      -44.46720000     -33.41620000     -76.15420000
S      -42.50000000     -35.64950000     -70.02150000
S      -43.45380000     -31.92620000     -74.47660000
C      -44.03790000     -34.91080000     -69.22050000
H      -44.89920000     -35.27150000     -69.76110000
H      -44.25910000     -35.32990000     -68.24320000
C      -45.09620000     -31.70470000     -73.57060000
H      -45.84800000     -32.19910000     -74.08220000
H      -45.40340000     -30.62060000     -73.53640000
C      -44.87050000     -32.07990000     -72.11850000
H      -44.70420000     -33.11740000     -72.03430000
H      -43.92730000     -31.57270000     -71.82720000
C      -44.02740000     -33.38040000     -69.13770000
H      -43.54580000     -32.87590000     -70.05420000
H      -43.43430000     -33.09900000     -68.28550000
C      -45.41860000     -32.84040000     -68.93810000
C      -45.98800000     -32.90310000     -67.67900000
C      -46.28920000     -32.14300000     -69.89170000
H      -45.48870000     -33.19960000     -66.70180000
C      -47.49250000     -31.80060000     -69.27820000
C      -46.11610000     -31.73430000     -71.23670000
C      -47.29350000     -31.17130000     -71.70190000
S      -47.68050000     -32.19140000     -67.60200000
S      -48.56170000     -31.05260000     -70.46050000
H      -47.49280000     -30.73650000     -72.67500000
