40
Properties=species:S:1:pos:R:3 #=T CELL(abcABC):=T 1.889726e+02=T 90.00000=T Traj:=T positionsangstrom=T Step:=T 0=T Bead:=T pbc="F F F"
C      -48.56080000     -32.23190000     -71.15190000
C      -48.32180000     -33.22170000     -70.16350000
C      -48.24280000     -34.58570000     -70.59470000
C      -48.21730000     -34.91350000     -71.98260000
C      -48.33300000     -33.86350000     -72.88650000
C      -48.57640000     -32.57390000     -72.50950000
H      -48.68600000     -31.21900000     -70.82520000
H      -48.24100000     -35.43220000     -69.89060000
H      -48.22540000     -34.05910000     -73.95520000
H      -48.51770000     -31.75960000     -73.21010000
C      -48.15780000     -36.40750000     -72.38650000
H      -48.32030000     -36.54980000     -73.48180000
H      -48.90610000     -36.92070000     -71.75020000
C      -48.44590000     -32.82640000     -68.67440000
H      -49.36510000     -32.29150000     -68.45200000
H      -48.37520000     -33.80310000     -68.07810000
S      -46.52870000     -37.08710000     -71.86850000
S      -47.11580000     -31.66140000     -68.13130000
C      -45.42450000     -35.76460000     -72.56600000
H      -44.71970000     -36.30280000     -73.18820000
H      -46.02210000     -35.19950000     -73.21750000
C      -45.58820000     -32.27510000     -68.92280000
H      -45.71950000     -33.39850000     -69.00960000
H      -44.85690000     -32.09700000     -68.13840000
C      -45.31830000     -31.70730000     -70.40510000
H      -46.00540000     -32.16080000     -71.09860000
H      -45.67540000     -30.62990000     -70.52100000
C      -44.74520000     -34.88270000     -71.50690000
H      -44.33760000     -35.44600000     -70.58350000
H      -45.50490000     -34.17950000     -71.06830000
C      -43.58080000     -34.10630000     -72.07340000
C      -42.66260000     -34.69470000     -72.91730000
C      -43.21700000     -32.77800000     -71.67630000
H      -42.76740000     -35.63570000     -73.49800000
C      -41.98040000     -32.36320000     -72.16900000
C      -43.83730000     -31.76200000     -70.86900000
C      -43.11570000     -30.62150000     -70.82750000
S      -41.28980000     -33.57720000     -73.20640000
S      -41.55650000     -30.75050000     -71.74880000
H      -43.34830000     -29.66840000     -70.33780000
