40
Properties=species:S:1:pos:R:3 #=T CELL(abcABC):=T 1.889726e+02=T 90.00000=T Traj:=T positionsangstrom=T Step:=T 0=T Bead:=T pbc="F F F"
C      -44.07580000     -30.32790000     -73.46750000
C      -44.10640000     -31.66810000     -73.00990000
C      -44.37620000     -31.91310000     -71.65010000
C      -44.67530000     -30.87640000     -70.72630000
C      -44.44360000     -29.59650000     -71.15080000
C      -44.26670000     -29.33440000     -72.52050000
H      -43.99480000     -30.09020000     -74.48460000
H      -44.41670000     -32.95720000     -71.37750000
H      -44.58340000     -28.76870000     -70.50980000
H      -44.28340000     -28.29790000     -72.98150000
C      -45.01510000     -31.28230000     -69.31270000
H      -44.47470000     -30.62060000     -68.56530000
H      -44.75030000     -32.31710000     -69.24160000
C      -43.85820000     -32.83930000     -73.95420000
H      -43.02650000     -32.58120000     -74.69770000
H      -43.45310000     -33.75410000     -73.44940000
S      -46.78820000     -31.16650000     -68.75250000
S      -45.32590000     -33.47090000     -74.94590000
C      -47.56380000     -32.26840000     -70.10620000
H      -48.49820000     -31.83810000     -70.39650000
H      -46.81910000     -32.30600000     -70.94630000
C      -46.65840000     -33.22150000     -73.73010000
H      -47.53290000     -32.90630000     -74.29450000
H      -46.45020000     -32.46500000     -72.98860000
C      -47.00170000     -34.56800000     -73.00080000
H      -47.91850000     -34.31840000     -72.41920000
H      -47.36980000     -35.34480000     -73.73640000
C      -47.73310000     -33.67750000     -69.68620000
H      -48.46570000     -34.03060000     -70.44380000
H      -48.18770000     -33.72890000     -68.66040000
C      -46.49840000     -34.52640000     -69.59180000
C      -45.86040000     -34.72430000     -68.39480000
C      -45.76280000     -35.14650000     -70.71350000
H      -46.28440000     -34.39250000     -67.45560000
C      -44.55190000     -35.73050000     -70.33150000
C      -45.91640000     -35.17540000     -72.13480000
C      -44.99540000     -36.04620000     -72.75340000
S      -44.34830000     -35.70210000     -68.55600000
S      -43.76810000     -36.60370000     -71.64960000
H      -44.95940000     -36.16270000     -73.82640000
