40
Properties=species:S:1:pos:R:3 #=T CELL(abcABC):=T 1.889726e+02=T 90.00000=T Traj:=T positionsangstrom=T Step:=T 0=T Bead:=T pbc="F F F"
C      -43.92130000     -30.48110000     -73.43280000
C      -43.97890000     -31.73910000     -72.93440000
C      -44.25580000     -32.04190000     -71.54430000
C      -44.62700000     -30.98380000     -70.73940000
C      -44.61470000     -29.70480000     -71.28360000
C      -44.16420000     -29.37410000     -72.53780000
H      -43.71900000     -30.25290000     -74.41580000
H      -44.21850000     -33.06780000     -71.17690000
H      -44.73760000     -28.89700000     -70.57030000
H      -44.09090000     -28.40590000     -72.98020000
C      -44.95650000     -31.20230000     -69.30480000
H      -44.47330000     -30.42900000     -68.70830000
H      -44.56580000     -32.15130000     -68.89480000
C      -43.90130000     -32.96940000     -73.90610000
H      -43.15780000     -32.70280000     -74.67380000
H      -43.72680000     -33.91500000     -73.51170000
S      -46.73730000     -30.96330000     -69.05140000
S      -45.49720000     -33.09090000     -74.85210000
C      -47.61320000     -32.26920000     -70.06990000
H      -48.61460000     -31.80040000     -70.14030000
H      -47.27340000     -32.28260000     -71.07140000
C      -46.78360000     -33.34150000     -73.54880000
H      -47.70460000     -32.81400000     -74.02410000
H      -46.62900000     -32.59260000     -72.75700000
C      -47.05340000     -34.72440000     -73.01880000
H      -47.97550000     -34.63810000     -72.43740000
H      -47.30850000     -35.37580000     -73.82500000
C      -47.72870000     -33.71520000     -69.52700000
H      -48.46100000     -34.28090000     -70.06350000
H      -48.10070000     -33.66010000     -68.52320000
C      -46.46360000     -34.57090000     -69.54980000
C      -45.72370000     -34.80770000     -68.42140000
C      -45.79890000     -35.15710000     -70.74000000
H      -45.96780000     -34.42500000     -67.41440000
C      -44.60160000     -35.77420000     -70.33030000
C      -45.93340000     -35.23690000     -72.15500000
C      -44.89780000     -35.92340000     -72.75400000
S      -44.36980000     -35.84760000     -68.61790000
S      -43.75010000     -36.59670000     -71.59250000
H      -44.87700000     -36.29710000     -73.81810000
