40
Properties=species:S:1:pos:R:3 #=T CELL(abcABC):=T 1.889726e+02=T 90.00000=T Traj:=T positionsangstrom=T Step:=T 0=T Bead:=T pbc="F F F"
C      -44.11330000     -30.36060000     -73.52780000
C      -44.21770000     -31.66920000     -73.18050000
C      -44.36120000     -31.95160000     -71.77490000
C      -44.44020000     -30.95040000     -70.81980000
C      -44.19530000     -29.63770000     -71.25740000
C      -44.03050000     -29.29430000     -72.60910000
H      -44.05880000     -29.97210000     -74.57530000
H      -44.49630000     -32.97920000     -71.48530000
H      -44.20530000     -28.83800000     -70.55190000
H      -44.05490000     -28.25810000     -72.82080000
C      -44.56240000     -31.30120000     -69.36130000
H      -43.91410000     -30.67080000     -68.68410000
H      -44.31100000     -32.33320000     -69.32620000
C      -44.10760000     -32.83770000     -74.10550000
H      -43.68680000     -32.68120000     -75.16180000
H      -43.48010000     -33.66310000     -73.67380000
S      -46.22350000     -31.05780000     -68.73570000
S      -45.63100000     -33.75790000     -74.64390000
C      -47.24560000     -31.89170000     -69.95320000
H      -48.20650000     -31.32010000     -69.97190000
H      -46.71180000     -31.78640000     -70.85430000
C      -46.95290000     -33.43970000     -73.35650000
H      -47.82580000     -32.99950000     -73.89950000
H      -46.71790000     -32.65070000     -72.67330000
C      -47.50840000     -34.73360000     -72.70440000
H      -48.40690000     -34.58060000     -72.08750000
H      -47.82230000     -35.33860000     -73.65170000
C      -47.54680000     -33.36150000     -69.69640000
H      -48.23260000     -33.68470000     -70.44630000
H      -48.09470000     -33.39870000     -68.81480000
C      -46.36290000     -34.30560000     -69.62170000
C      -45.59610000     -34.50130000     -68.48670000
C      -45.86950000     -35.13170000     -70.66920000
H      -45.72150000     -34.00920000     -67.54480000
C      -44.69390000     -35.85850000     -70.36010000
C      -46.36250000     -35.39920000     -71.96850000
C      -45.57390000     -36.32640000     -72.65660000
S      -44.09550000     -35.43890000     -68.76250000
S      -44.12950000     -36.70920000     -71.82730000
H      -45.78220000     -36.71120000     -73.66780000
