40
Properties=species:S:1:pos:R:3 #=T CELL(abcABC):=T 1.889726e+02=T 90.00000=T Traj:=T positionsangstrom=T Step:=T 0=T Bead:=T pbc="F F F"
C      -44.46030000     -30.57960000     -73.63900000
C      -44.17130000     -31.85720000     -73.14830000
C      -44.07890000     -31.99280000     -71.72660000
C      -44.40710000     -30.87530000     -70.91320000
C      -44.61420000     -29.62600000     -71.44940000
C      -44.72570000     -29.48480000     -72.78840000
H      -44.45750000     -30.48110000     -74.71320000
H      -43.73840000     -32.94560000     -71.39380000
H      -44.81490000     -28.77920000     -70.86380000
H      -44.89330000     -28.50880000     -73.19020000
C      -44.34940000     -31.18930000     -69.41990000
H      -43.63100000     -30.63400000     -68.77440000
H      -44.05080000     -32.22820000     -69.54720000
C      -44.10470000     -33.15130000     -73.95220000
H      -43.32480000     -33.11800000     -74.69370000
H      -43.79510000     -33.91430000     -73.26660000
S      -46.01140000     -31.09000000     -68.51280000
S      -45.73200000     -33.41070000     -74.90750000
C      -47.17130000     -31.85990000     -69.70510000
H      -48.12980000     -31.27040000     -69.49780000
H      -46.87830000     -31.76400000     -70.73160000
C      -47.00970000     -33.24340000     -73.57860000
H      -47.94570000     -32.93610000     -74.18080000
H      -46.73660000     -32.38340000     -72.98640000
C      -47.31940000     -34.50590000     -72.81520000
H      -48.14400000     -34.36020000     -72.13290000
H      -47.67600000     -35.28100000     -73.53150000
C      -47.39450000     -33.41610000     -69.54650000
H      -48.01690000     -33.65570000     -70.40730000
H      -48.14400000     -33.60490000     -68.66270000
C      -46.19240000     -34.24900000     -69.56970000
C      -45.37050000     -34.37710000     -68.48330000
C      -45.85890000     -35.07770000     -70.70670000
H      -45.58620000     -33.90060000     -67.50520000
C      -44.80000000     -35.93720000     -70.31410000
C      -46.18790000     -35.20900000     -72.08380000
C      -45.47640000     -36.20020000     -72.65870000
S      -44.09270000     -35.57170000     -68.75070000
S      -44.26490000     -36.92300000     -71.65730000
H      -45.65650000     -36.53680000     -73.66570000
