40
Properties=species:S:1:pos:R:3 #=T CELL(abcABC):=T 1.889726e+02=T 90.00000=T Traj:=T positionsangstrom=T Step:=T 0=T Bead:=T pbc="F F F"
C      -44.61000000     -30.71050000     -73.61120000
C      -44.29020000     -32.03290000     -73.09560000
C      -44.14170000     -32.18550000     -71.71000000
C      -44.31750000     -31.03750000     -70.86100000
C      -44.63720000     -29.79530000     -71.43570000
C      -44.79670000     -29.63610000     -72.77220000
H      -44.75520000     -30.66150000     -74.68210000
H      -44.08930000     -33.22780000     -71.40740000
H      -44.77820000     -28.89880000     -70.86180000
H      -45.24800000     -28.69660000     -73.09640000
C      -44.27120000     -31.03730000     -69.36930000
H      -43.84100000     -30.12150000     -69.05130000
H      -43.70610000     -31.88410000     -68.93910000
C      -44.16110000     -33.10160000     -74.03760000
H      -43.51050000     -32.96630000     -74.85040000
H      -43.90450000     -34.09540000     -73.45310000
S      -45.93910000     -30.96710000     -68.54260000
S      -45.80400000     -33.39910000     -74.85940000
C      -47.01360000     -31.77940000     -69.85870000
H      -47.89670000     -31.22840000     -69.85940000
H      -46.64430000     -31.62870000     -70.79430000
C      -46.98420000     -33.15230000     -73.45800000
H      -47.87190000     -32.72600000     -73.80880000
H      -46.62380000     -32.56700000     -72.67070000
C      -47.33790000     -34.50870000     -72.80180000
H      -48.15140000     -34.22670000     -72.06190000
H      -47.75800000     -35.16360000     -73.54180000
C      -47.36980000     -33.26390000     -69.50800000
H      -48.17240000     -33.55190000     -70.11660000
H      -47.68720000     -33.39240000     -68.37700000
C      -46.13670000     -34.21700000     -69.58980000
C      -45.34890000     -34.40940000     -68.44250000
C      -45.75350000     -34.99210000     -70.74630000
H      -45.59240000     -34.01280000     -67.46730000
C      -44.64490000     -35.82690000     -70.37170000
C      -46.15310000     -35.18900000     -72.12060000
C      -45.51320000     -36.22810000     -72.71840000
S      -44.19620000     -35.67460000     -68.71420000
S      -44.22650000     -36.87090000     -71.74230000
H      -45.84070000     -36.68020000     -73.62550000
