40
Properties=species:S:1:pos:R:3 #=T CELL(abcABC):=T 1.889726e+02=T 90.00000=T Traj:=T positionsangstrom=T Step:=T 0=T Bead:=T pbc="F F F"
C      -49.12820000     -33.03030000     -71.50340000
C      -48.68210000     -33.81350000     -70.49170000
C      -48.03180000     -35.03850000     -70.75930000
C      -47.68730000     -35.40520000     -72.06660000
C      -48.07810000     -34.50780000     -73.07640000
C      -48.84130000     -33.34680000     -72.84080000
H      -49.76920000     -32.20290000     -71.19390000
H      -47.76210000     -35.71360000     -69.91260000
H      -47.82470000     -34.74890000     -74.08320000
H      -49.11140000     -32.64310000     -73.59100000
C      -47.10340000     -36.68690000     -72.54800000
H      -46.92420000     -36.67010000     -73.61630000
H      -47.73430000     -37.57340000     -72.34910000
C      -48.84820000     -33.34940000     -69.08780000
H      -49.78690000     -32.72950000     -68.95940000
H      -48.85970000     -34.08540000     -68.34220000
S      -45.58960000     -37.29630000     -71.71740000
S      -47.52440000     -32.18330000     -68.39220000
C      -44.34660000     -36.07470000     -72.33610000
H      -43.32900000     -36.51800000     -72.10160000
H      -44.42220000     -36.16730000     -73.49170000
C      -45.89080000     -32.38130000     -69.27300000
H      -45.57640000     -33.42780000     -69.30150000
H      -45.14690000     -31.92080000     -68.65710000
C      -45.86900000     -31.78800000     -70.70950000
H      -46.36890000     -32.39500000     -71.40870000
H      -46.40410000     -30.84020000     -70.70480000
C      -44.52990000     -34.73200000     -71.61300000
H      -44.56670000     -34.99940000     -70.51800000
H      -45.47430000     -34.34470000     -71.85910000
C      -43.36310000     -33.75130000     -71.80180000
C      -42.09450000     -34.14250000     -72.16910000
C      -43.44980000     -32.30900000     -71.57120000
H      -41.70690000     -35.21850000     -72.31960000
C      -42.21430000     -31.71380000     -71.81120000
C      -44.48870000     -31.38780000     -71.22040000
C      -44.05820000     -30.10710000     -71.29760000
S      -40.92150000     -32.76040000     -72.18240000
S      -42.38400000     -29.94710000     -71.85330000
H      -44.57630000     -29.16640000     -71.08280000
