40
Properties=species:S:1:pos:R:3 #=T CELL(abcABC):=T 1.889726e+02=T 90.00000=T Traj:=T positionsangstrom=T Step:=T 0=T Bead:=T pbc="F F F"
C      -48.91750000     -33.03630000     -71.60150000
C      -48.46680000     -33.82060000     -70.48610000
C      -47.90410000     -35.09700000     -70.77740000
C      -47.82770000     -35.63290000     -72.10480000
C      -48.17810000     -34.74370000     -73.17130000
C      -48.79020000     -33.50770000     -72.90900000
H      -49.52310000     -32.10550000     -71.42960000
H      -47.34630000     -35.73110000     -70.02980000
H      -47.90030000     -34.98470000     -74.27990000
H      -49.20750000     -32.95780000     -73.76600000
C      -47.12780000     -36.93620000     -72.35080000
H      -46.70030000     -36.98140000     -73.40960000
H      -47.86580000     -37.74100000     -72.27340000
C      -48.61850000     -33.32220000     -69.05780000
H      -49.57060000     -32.99270000     -68.89430000
H      -48.41830000     -34.26140000     -68.48420000
S      -45.68910000     -37.25650000     -71.21000000
S      -47.49490000     -31.88160000     -68.61510000
C      -44.35290000     -36.21300000     -71.93720000
H      -43.42960000     -36.76960000     -71.81980000
H      -44.56950000     -35.94590000     -72.95610000
C      -46.00710000     -32.41010000     -69.52930000
H      -45.98640000     -33.47520000     -69.49880000
H      -45.10260000     -31.93330000     -69.00000000
C      -45.96380000     -31.82800000     -70.98660000
H      -46.25730000     -32.57130000     -71.72880000
H      -46.56220000     -30.95220000     -71.05590000
C      -44.25670000     -34.81660000     -71.12950000
H      -43.86980000     -34.93250000     -70.09020000
H      -45.33970000     -34.43020000     -71.04740000
C      -43.25190000     -33.75550000     -71.68080000
C      -42.00500000     -34.07510000     -72.02830000
C      -43.49500000     -32.32450000     -71.65640000
H      -41.52370000     -35.00850000     -72.13680000
C      -42.29380000     -31.61530000     -71.95380000
C      -44.52660000     -31.41070000     -71.36130000
C      -44.18130000     -30.12550000     -71.49070000
S      -40.98970000     -32.66740000     -72.42370000
S      -42.49250000     -29.91420000     -71.89090000
H      -44.76180000     -29.29120000     -71.34760000
