40
Properties=species:S:1:pos:R:3 #=T CELL(abcABC):=T 1.889726e+02=T 90.00000=T Traj:=T positionsangstrom=T Step:=T 0=T Bead:=T pbc="F F F"
C      -49.02120000     -33.21130000     -71.59160000
C      -48.47330000     -33.86410000     -70.42250000
C      -47.84880000     -35.07330000     -70.58590000
C      -47.52350000     -35.58460000     -71.88370000
C      -47.91300000     -34.85310000     -73.01530000
C      -48.72710000     -33.68170000     -72.85620000
H      -49.64570000     -32.36560000     -71.49620000
H      -47.40890000     -35.50710000     -69.76110000
H      -47.73500000     -35.19570000     -73.97640000
H      -49.17950000     -33.27470000     -73.74880000
C      -46.88240000     -36.98170000     -72.06840000
H      -46.53700000     -37.02710000     -73.12760000
H      -47.67400000     -37.78680000     -71.90500000
C      -48.75160000     -33.28990000     -69.05870000
H      -49.88170000     -33.21090000     -68.96740000
H      -48.37210000     -33.83100000     -68.24160000
S      -45.41580000     -37.46220000     -71.11430000
S      -48.14710000     -31.55440000     -68.87000000
C      -44.10520000     -36.29230000     -71.63140000
H      -43.20320000     -36.75600000     -71.24660000
H      -44.11900000     -36.35190000     -72.72160000
C      -46.29670000     -31.64160000     -69.27230000
H      -45.94380000     -32.66000000     -68.88350000
H      -45.91900000     -30.78560000     -68.73030000
C      -45.88750000     -31.61310000     -70.76070000
H      -46.26320000     -32.55290000     -71.19360000
H      -46.46150000     -30.93150000     -71.26020000
C      -44.26970000     -34.86990000     -71.08730000
H      -44.35330000     -34.96390000     -69.94490000
H      -45.18040000     -34.43900000     -71.46820000
C      -43.21960000     -33.82740000     -71.64240000
C      -41.95830000     -34.19480000     -72.02140000
C      -43.39040000     -32.32700000     -71.57900000
H      -41.54870000     -35.18700000     -72.09020000
C      -42.34760000     -31.69810000     -72.24540000
C      -44.37760000     -31.37450000     -71.18160000
C      -44.00640000     -30.07150000     -71.43310000
S      -41.05090000     -32.84780000     -72.65550000
S      -42.48640000     -29.97040000     -72.30630000
H      -44.58200000     -29.20740000     -71.17770000
