40
Properties=species:S:1:pos:R:3 #=T CELL(abcABC):=T 1.889726e+02=T 90.00000=T Traj:=T positionsangstrom=T Step:=T 0=T Bead:=T pbc="F F F"
C      -48.90980000     -33.45390000     -71.67550000
C      -48.48930000     -33.82580000     -70.38600000
C      -47.84730000     -35.05430000     -70.28440000
C      -47.55730000     -35.82750000     -71.47580000
C      -48.06900000     -35.46390000     -72.70910000
C      -48.82480000     -34.32030000     -72.74400000
H      -49.41750000     -32.47820000     -71.76470000
H      -47.41340000     -35.43590000     -69.34590000
H      -47.92560000     -36.06960000     -73.57000000
H      -49.23740000     -34.15700000     -73.73860000
C      -46.93630000     -37.24500000     -71.38830000
H      -46.73920000     -37.79460000     -72.37020000
H      -47.66480000     -37.90640000     -70.82890000
C      -48.61750000     -32.93350000     -69.17040000
H      -49.66090000     -32.78190000     -69.07350000
H      -48.16610000     -33.32590000     -68.23380000
S      -45.43550000     -37.30860000     -70.34330000
S      -48.01910000     -31.21470000     -69.45920000
C      -44.28090000     -36.13940000     -71.30670000
H      -43.23290000     -36.26240000     -70.92790000
H      -44.38770000     -36.48000000     -72.33670000
C      -46.23840000     -31.67750000     -70.09200000
H      -46.09140000     -32.81750000     -69.98430000
H      -45.59510000     -31.19280000     -69.35320000
C      -46.03570000     -31.41250000     -71.56760000
H      -46.35270000     -32.24010000     -72.13340000
H      -46.55450000     -30.51190000     -71.88400000
C      -44.55690000     -34.60080000     -71.14430000
H      -44.72030000     -34.32440000     -70.07170000
H      -45.50320000     -34.21920000     -71.69280000
C      -43.41900000     -33.75670000     -71.74080000
C      -42.19270000     -34.22830000     -72.11960000
C      -43.51320000     -32.26970000     -71.83470000
H      -41.80800000     -35.31050000     -72.05340000
C      -42.23870000     -31.80400000     -72.03980000
C      -44.48790000     -31.23850000     -71.80480000
C      -43.91070000     -29.96450000     -71.95480000
S      -40.99910000     -32.91810000     -72.50870000
S      -42.19800000     -30.09680000     -72.17820000
H      -44.39190000     -29.03510000     -71.98350000
