40
Properties=species:S:1:pos:R:3 #=T CELL(abcABC):=T 1.889726e+02=T 90.00000=T Traj:=T positionsangstrom=T Step:=T 0=T Bead:=T pbc="F F F"
C      -49.17310000     -33.45440000     -71.79850000
C      -48.72040000     -33.79300000     -70.48010000
C      -48.02870000     -35.02260000     -70.27980000
C      -47.77650000     -35.89030000     -71.36720000
C      -48.10130000     -35.52700000     -72.67330000
C      -48.82400000     -34.36090000     -72.85930000
H      -49.53350000     -32.50020000     -72.03160000
H      -47.60220000     -35.38570000     -69.38430000
H      -47.93440000     -36.26710000     -73.49630000
H      -49.31860000     -33.98980000     -73.75360000
C      -47.11660000     -37.19410000     -71.07710000
H      -47.05060000     -37.74620000     -72.01470000
H      -47.71460000     -37.86160000     -70.33300000
C      -48.99170000     -32.82780000     -69.31690000
H      -50.02690000     -32.48280000     -69.21910000
H      -48.60540000     -33.20920000     -68.41070000
S      -45.49040000     -37.08580000     -70.19030000
S      -48.02250000     -31.24280000     -69.51980000
C      -44.37700000     -36.24270000     -71.45380000
H      -43.43830000     -36.76620000     -71.46590000
H      -44.77700000     -36.37530000     -72.52020000
C      -46.25370000     -31.71320000     -70.00100000
H      -46.22450000     -32.79780000     -69.73910000
H      -45.55340000     -31.20500000     -69.27180000
C      -45.87450000     -31.53920000     -71.44120000
H      -46.19200000     -32.38970000     -72.07450000
H      -46.44060000     -30.67900000     -71.84170000
C      -44.38970000     -34.65730000     -71.27360000
H      -44.68130000     -34.39810000     -70.22320000
H      -45.15900000     -34.35150000     -71.94450000
C      -43.20250000     -33.80800000     -71.75110000
C      -41.93520000     -34.24070000     -71.91870000
C      -43.28600000     -32.38810000     -71.82250000
H      -41.63900000     -35.26820000     -71.88670000
C      -42.10310000     -31.75880000     -72.19330000
C      -44.36020000     -31.34890000     -71.76800000
C      -43.96210000     -30.06400000     -71.99510000
S      -40.69620000     -32.96390000     -72.27490000
S      -42.26280000     -30.00120000     -72.48730000
H      -44.51660000     -29.12150000     -71.89630000
