40
Properties=species:S:1:pos:R:3 #=T CELL(abcABC):=T 1.889726e+02=T 90.00000=T Traj:=T positionsangstrom=T Step:=T 0=T Bead:=T pbc="F F F"
C      -48.96370000     -33.30160000     -71.88360000
C      -48.58020000     -33.69920000     -70.51760000
C      -47.95870000     -34.94300000     -70.31490000
C      -47.81460000     -35.87480000     -71.37420000
C      -48.27930000     -35.57130000     -72.61710000
C      -48.87010000     -34.29000000     -72.89710000
H      -49.45530000     -32.32770000     -72.12390000
H      -47.69960000     -35.18470000     -69.31840000
H      -47.99500000     -36.23640000     -73.38640000
H      -49.15800000     -33.95130000     -73.90740000
C      -47.03340000     -37.12960000     -71.09610000
H      -46.82770000     -37.64570000     -71.99070000
H      -47.65060000     -37.85060000     -70.49930000
C      -48.87760000     -32.67670000     -69.39750000
H      -49.91400000     -32.18150000     -69.43000000
H      -48.72530000     -33.09720000     -68.44820000
S      -45.40060000     -37.01160000     -70.12850000
S      -47.83580000     -31.15910000     -69.63180000
C      -44.29450000     -36.13070000     -71.26940000
H      -43.36370000     -36.19360000     -70.72350000
H      -44.22140000     -36.46780000     -72.29890000
C      -46.17950000     -31.84410000     -70.01110000
H      -46.21930000     -32.87760000     -69.63350000
H      -45.43420000     -31.31310000     -69.45580000
C      -45.94820000     -31.71150000     -71.53030000
H      -46.31580000     -32.64660000     -71.91870000
H      -46.52520000     -30.82420000     -71.89820000
C      -44.53560000     -34.62260000     -71.20330000
H      -44.66310000     -34.30340000     -70.09760000
H      -45.45020000     -34.29700000     -71.70540000
C      -43.28910000     -33.81800000     -71.60620000
C      -42.05520000     -34.29810000     -71.86690000
C      -43.38660000     -32.40620000     -71.74060000
H      -41.67680000     -35.27220000     -71.74730000
C      -42.12980000     -31.87470000     -72.08050000
C      -44.50100000     -31.39640000     -71.85750000
C      -44.00890000     -30.17160000     -72.21720000
S      -40.88030000     -33.01760000     -72.31660000
S      -42.28370000     -30.15800000     -72.40440000
H      -44.64370000     -29.29240000     -72.51380000
