40
Properties=species:S:1:pos:R:3 #=T CELL(abcABC):=T 1.889726e+02=T 90.00000=T Traj:=T positionsangstrom=T Step:=T 0=T Bead:=T pbc="F F F"
C      -49.21350000     -33.44450000     -71.80870000
C      -48.53780000     -33.56510000     -70.58870000
C      -47.78780000     -34.76090000     -70.37670000
C      -47.62520000     -35.70970000     -71.33190000
C      -48.06310000     -35.46030000     -72.67920000
C      -48.86850000     -34.32160000     -72.85480000
H      -50.00130000     -32.64020000     -71.81720000
H      -47.35490000     -34.87320000     -69.35300000
H      -47.98850000     -36.18420000     -73.45740000
H      -49.31780000     -34.10050000     -73.81610000
C      -46.95490000     -37.12720000     -71.16980000
H      -46.52280000     -37.53720000     -72.14250000
H      -47.77220000     -37.74800000     -70.87930000
C      -48.73780000     -32.63290000     -69.48480000
H      -49.79960000     -32.37240000     -69.42290000
H      -48.52700000     -33.24370000     -68.52440000
S      -45.57670000     -37.14370000     -69.98490000
S      -47.78380000     -31.08440000     -69.56300000
C      -44.21450000     -36.18420000     -70.82650000
H      -43.27890000     -36.41430000     -70.21940000
H      -44.07420000     -36.70300000     -71.77910000
C      -46.11200000     -31.60900000     -70.13420000
H      -45.76010000     -32.56310000     -69.75860000
H      -45.40610000     -30.82360000     -69.81120000
C      -45.95750000     -31.65340000     -71.69340000
H      -46.28870000     -32.58270000     -72.17750000
H      -46.56650000     -30.84840000     -72.15600000
C      -44.53350000     -34.73630000     -71.07760000
H      -44.87550000     -34.23450000     -70.21240000
H      -45.34830000     -34.73950000     -71.78150000
C      -43.42750000     -33.85100000     -71.67800000
C      -42.15760000     -34.30260000     -71.73590000
C      -43.53260000     -32.43850000     -71.98790000
H      -41.78290000     -35.32040000     -71.68500000
C      -42.23670000     -31.94240000     -72.37020000
C      -44.49580000     -31.40030000     -71.99370000
C      -43.97530000     -30.13300000     -72.21600000
S      -40.96340000     -33.10750000     -72.24130000
S      -42.20150000     -30.18590000     -72.48540000
H      -44.56780000     -29.26560000     -72.40240000
