40
Properties=species:S:1:pos:R:3 #=T CELL(abcABC):=T 1.889726e+02=T 90.00000=T Traj:=T positionsangstrom=T Step:=T 0=T Bead:=T pbc="F F F"
C      -49.12630000     -33.10110000     -71.60000000
C      -48.50270000     -33.42600000     -70.39170000
C      -47.89470000     -34.69190000     -70.29650000
C      -47.74160000     -35.53860000     -71.40600000
C      -48.56920000     -35.24640000     -72.54730000
C      -49.23980000     -33.98250000     -72.66030000
H      -49.74290000     -32.18040000     -71.61010000
H      -47.41680000     -35.08700000     -69.40190000
H      -48.52740000     -35.80020000     -73.42600000
H      -49.82020000     -33.81130000     -73.64350000
C      -46.99800000     -36.91320000     -71.44470000
H      -46.64510000     -37.10120000     -72.41200000
H      -47.85680000     -37.65130000     -71.52010000
C      -48.58300000     -32.44760000     -69.31230000
H      -49.58360000     -32.22020000     -68.98130000
H      -48.05190000     -32.85320000     -68.38030000
S      -45.63830000     -37.18040000     -70.24490000
S      -47.74020000     -30.85860000     -69.64850000
C      -44.40730000     -36.02790000     -70.90420000
H      -43.43570000     -36.44010000     -70.52420000
H      -44.48140000     -36.05550000     -72.03830000
C      -46.01560000     -31.20040000     -70.10700000
H      -45.57990000     -32.04460000     -69.57240000
H      -45.47060000     -30.34910000     -69.73760000
C      -45.84320000     -31.51510000     -71.61740000
H      -46.27130000     -32.44930000     -71.85900000
H      -46.32790000     -30.80810000     -72.33760000
C      -44.49770000     -34.56500000     -70.43470000
H      -44.32860000     -34.55090000     -69.31080000
H      -45.40670000     -34.03610000     -70.70210000
C      -43.36390000     -33.85510000     -71.10930000
C      -42.09930000     -34.47640000     -71.18190000
C      -43.38790000     -32.57900000     -71.75560000
H      -41.81960000     -35.30230000     -70.60680000
C      -42.13170000     -32.21170000     -72.31060000
C      -44.40520000     -31.58870000     -72.10330000
C      -43.81650000     -30.51860000     -72.82170000
S      -40.95700000     -33.44090000     -72.05900000
S      -42.11870000     -30.68080000     -73.14490000
H      -44.44400000     -29.65900000     -73.03110000
