40
Properties=species:S:1:pos:R:3 #=T CELL(abcABC):=T 1.889726e+02=T 90.00000=T Traj:=T positionsangstrom=T Step:=T 0=T Bead:=T pbc="F F F"
C      -49.22230000     -32.79820000     -71.32050000
C      -48.54600000     -33.19280000     -70.14850000
C      -48.05720000     -34.51960000     -70.03780000
C      -48.05220000     -35.41890000     -71.10330000
C      -48.63820000     -34.94270000     -72.31300000
C      -49.24780000     -33.72230000     -72.37940000
H      -49.54910000     -31.77840000     -71.42510000
H      -47.53400000     -34.75800000     -69.16210000
H      -48.65170000     -35.61790000     -73.10040000
H      -49.70500000     -33.55640000     -73.36560000
C      -47.59270000     -36.75320000     -70.92940000
H      -47.83180000     -37.21570000     -71.86170000
H      -48.12190000     -37.21890000     -70.07270000
C      -48.36030000     -32.19040000     -69.02330000
H      -49.35050000     -31.75410000     -68.80180000
H      -47.92690000     -32.50200000     -68.06530000
S      -45.83640000     -37.07710000     -70.63650000
S      -47.49360000     -30.69710000     -69.72880000
C      -44.99080000     -35.64530000     -71.40120000
H      -44.26540000     -36.15030000     -72.04520000
H      -45.66620000     -35.15070000     -72.04510000
C      -45.76150000     -31.26430000     -70.13570000
H      -45.43760000     -31.79730000     -69.28750000
H      -45.17800000     -30.35640000     -70.15150000
C      -45.67490000     -31.99270000     -71.49370000
H      -45.91840000     -33.02840000     -71.41580000
H      -46.42170000     -31.58080000     -72.19210000
C      -44.23830000     -34.77380000     -70.37130000
H      -43.85180000     -35.34320000     -69.56370000
H      -44.97840000     -34.10560000     -69.89460000
C      -43.08730000     -34.04670000     -71.11050000
C      -41.79080000     -34.48430000     -71.14330000
C      -43.29900000     -32.87670000     -71.89070000
H      -41.37860000     -35.41940000     -70.70610000
C      -42.05970000     -32.42400000     -72.46290000
C      -44.32430000     -31.89280000     -72.13860000
C      -43.94000000     -30.91330000     -73.00190000
S      -40.75240000     -33.46640000     -72.05520000
S      -42.24040000     -30.96400000     -73.35680000
H      -44.53020000     -30.05900000     -73.36130000
