40
Properties=species:S:1:pos:R:3 #=T CELL(abcABC):=T 1.889726e+02=T 90.00000=T Traj:=T positionsangstrom=T Step:=T 0=T Bead:=T pbc="F F F"
C      -49.14290000     -32.72020000     -71.35780000
C      -48.45410000     -33.11220000     -70.22170000
C      -47.87710000     -34.39140000     -70.20630000
C      -48.17510000     -35.34950000     -71.21290000
C      -48.87430000     -34.88810000     -72.36550000
C      -49.34190000     -33.56270000     -72.45380000
H      -49.38100000     -31.65100000     -71.45650000
H      -47.29830000     -34.63830000     -69.24980000
H      -49.31270000     -35.54140000     -73.18300000
H      -49.92650000     -33.18450000     -73.27120000
C      -47.73690000     -36.83340000     -71.06040000
H      -47.69370000     -37.39630000     -72.02240000
H      -48.49320000     -37.32230000     -70.45700000
C      -48.21210000     -32.18450000     -69.09440000
H      -49.17320000     -31.98560000     -68.62670000
H      -47.64210000     -32.71000000     -68.32920000
S      -46.03940000     -36.93170000     -70.26550000
S      -47.29090000     -30.63000000     -69.57730000
C      -44.94690000     -35.89130000     -71.30300000
H      -44.13180000     -36.39910000     -71.81270000
H      -45.62800000     -35.41410000     -71.98410000
C      -45.67010000     -31.37530000     -70.11910000
H      -45.53370000     -32.15920000     -69.42310000
H      -44.97990000     -30.54360000     -70.01760000
C      -45.69020000     -31.85840000     -71.60380000
H      -46.23480000     -32.81480000     -71.73240000
H      -46.21870000     -31.09180000     -72.20980000
C      -44.35530000     -34.77290000     -70.41010000
H      -44.02150000     -35.16350000     -69.44590000
H      -45.08450000     -34.01200000     -70.16860000
C      -43.19110000     -34.15150000     -71.24570000
C      -41.95010000     -34.67590000     -71.34600000
C      -43.26960000     -32.84550000     -71.93980000
H      -41.68750000     -35.52440000     -70.83080000
C      -42.02490000     -32.45750000     -72.44150000
C      -44.30710000     -31.87680000     -72.17680000
C      -43.86150000     -30.92650000     -73.02050000
S      -40.76010000     -33.62880000     -72.08460000
S      -42.14210000     -30.99940000     -73.37360000
H      -44.37330000     -30.05360000     -73.46370000
