40
Properties=species:S:1:pos:R:3 #=T CELL(abcABC):=T 1.889726e+02=T 90.00000=T Traj:=T positionsangstrom=T Step:=T 0=T Bead:=T pbc="F F F"
C      -49.05880000     -32.63280000     -71.57690000
C      -48.43070000     -33.04980000     -70.37720000
C      -48.05240000     -34.36780000     -70.20580000
C      -48.17170000     -35.31360000     -71.17610000
C      -48.89090000     -34.95300000     -72.27520000
C      -49.29000000     -33.62270000     -72.49120000
H      -49.46240000     -31.60790000     -71.66060000
H      -47.69900000     -34.71240000     -69.29890000
H      -49.20670000     -35.67320000     -72.95050000
H      -49.83060000     -33.31460000     -73.42450000
C      -47.77300000     -36.73230000     -70.95830000
H      -47.90130000     -37.32400000     -71.91630000
H      -48.42400000     -37.28190000     -70.20640000
C      -48.26540000     -32.12550000     -69.19150000
H      -49.20900000     -31.72070000     -68.92320000
H      -47.76120000     -32.63880000     -68.39400000
S      -46.16860000     -36.96650000     -70.11940000
S      -47.33280000     -30.59010000     -69.51570000
C      -44.88600000     -36.04750000     -71.06870000
H      -44.03520000     -36.73280000     -71.16070000
H      -45.25840000     -35.85610000     -72.07420000
C      -45.66070000     -31.14550000     -70.08850000
H      -45.23470000     -31.96650000     -69.52390000
H      -45.05570000     -30.25300000     -69.93070000
C      -45.57730000     -31.51250000     -71.54960000
H      -46.11350000     -32.44960000     -71.71260000
H      -45.93910000     -30.69860000     -72.16550000
C      -44.47110000     -34.68120000     -70.51370000
H      -44.21980000     -34.85400000     -69.53110000
H      -45.32520000     -34.00250000     -70.55630000
C      -43.28740000     -34.10950000     -71.24870000
C      -42.08390000     -34.80200000     -71.36690000
C      -43.27340000     -32.80380000     -71.86750000
H      -41.93730000     -35.89800000     -71.13400000
C      -42.02350000     -32.55930000     -72.50760000
C      -44.17430000     -31.73590000     -72.10650000
C      -43.59390000     -30.79980000     -72.90680000
S      -40.85810000     -33.89510000     -72.34710000
S      -41.92190000     -31.09240000     -73.35980000
H      -44.03700000     -29.83010000     -73.03480000
