40
Properties=species:S:1:pos:R:3 #=T CELL(abcABC):=T 1.889726e+02=T 90.00000=T Traj:=T positionsangstrom=T Step:=T 0=T Bead:=T pbc="F F F"
C      -42.71430000     -35.50550000     -72.88760000
C      -42.59590000     -35.31750000     -71.51740000
C      -42.28010000     -34.05350000     -71.05730000
C      -42.15280000     -32.99120000     -71.90130000
C      -42.16020000     -33.17840000     -73.29030000
C      -42.45150000     -34.50230000     -73.74770000
H      -43.06290000     -36.45380000     -73.26230000
H      -42.18790000     -33.86720000     -69.94260000
H      -41.91420000     -32.40860000     -73.93690000
H      -42.49360000     -34.73530000     -74.83280000
C      -41.91760000     -31.59730000     -71.34520000
H      -40.93420000     -31.21070000     -71.69790000
H      -42.00960000     -31.60210000     -70.21330000
C      -42.77300000     -36.47800000     -70.61220000
H      -42.49590000     -37.42610000     -71.08920000
H      -41.99680000     -36.40730000     -69.79490000
S      -43.10630000     -30.19700000     -71.94900000
S      -44.48880000     -36.49470000     -69.85940000
C      -44.83300000     -30.60350000     -71.38090000
H      -44.85330000     -30.89130000     -70.35500000
H      -45.49310000     -29.66590000     -71.42950000
C      -44.69560000     -34.93270000     -68.84570000
H      -43.62690000     -34.67800000     -68.51280000
H      -45.31250000     -35.14380000     -68.03290000
C      -45.18460000     -33.80420000     -69.76330000
H      -45.01610000     -32.79470000     -69.36700000
H      -44.60660000     -33.83000000     -70.62780000
C      -45.35060000     -31.60200000     -72.32390000
H      -44.76770000     -32.52640000     -72.24120000
H      -45.29390000     -31.24400000     -73.40620000
C      -46.82210000     -31.94430000     -72.12610000
C      -47.83310000     -31.42540000     -72.81540000
C      -47.30890000     -32.93250000     -71.18430000
H      -47.66900000     -30.66510000     -73.61150000
C      -48.67880000     -33.04530000     -71.25200000
C      -46.65220000     -33.81770000     -70.23000000
C      -47.63550000     -34.61630000     -69.58630000
S      -49.41900000     -32.00460000     -72.39230000
S      -49.28420000     -34.27760000     -70.13450000
H      -47.41920000     -35.29980000     -68.79180000
