40
Properties=species:S:1:pos:R:3 #=T CELL(abcABC):=T 1.889726e+02=T 90.00000=T Traj:=T positionsangstrom=T Step:=T 0=T Bead:=T pbc="F F F"
C      -42.41490000     -35.45610000     -72.91690000
C      -42.57610000     -35.14920000     -71.56330000
C      -42.48690000     -33.79320000     -71.15280000
C      -42.19330000     -32.75110000     -72.06840000
C      -42.16070000     -33.10400000     -73.43400000
C      -42.13310000     -34.43760000     -73.87310000
H      -42.32130000     -36.46930000     -73.40310000
H      -42.64510000     -33.43570000     -70.10760000
H      -42.04570000     -32.36200000     -74.08300000
H      -41.93560000     -34.71170000     -74.89860000
C      -41.91880000     -31.37790000     -71.42500000
H      -40.97960000     -31.03130000     -71.83310000
H      -41.74680000     -31.48720000     -70.36930000
C      -42.79060000     -36.27360000     -70.56680000
H      -42.56700000     -37.20890000     -71.07570000
H      -42.18220000     -36.15210000     -69.70100000
S      -43.04050000     -30.01790000     -71.64360000
S      -44.48680000     -36.63730000     -69.85920000
C      -44.63300000     -30.75610000     -71.11130000
H      -44.40780000     -31.41930000     -70.25850000
H      -45.25290000     -29.90090000     -70.88900000
C      -44.79990000     -35.11250000     -68.99410000
H      -43.74240000     -34.81960000     -68.53700000
H      -45.42640000     -35.26010000     -68.12620000
C      -45.30440000     -33.87740000     -69.76460000
H      -44.97500000     -33.00070000     -69.10740000
H      -44.74650000     -33.78820000     -70.64650000
C      -45.36320000     -31.52070000     -72.25200000
H      -44.78240000     -32.44910000     -72.53260000
H      -45.25160000     -30.74520000     -73.07330000
C      -46.85410000     -31.94450000     -72.08160000
C      -47.84290000     -31.42640000     -72.78270000
C      -47.33610000     -33.01450000     -71.18610000
H      -47.75580000     -30.60420000     -73.51030000
C      -48.68380000     -33.23670000     -71.36210000
C      -46.75490000     -33.85140000     -70.13670000
C      -47.74270000     -34.52440000     -69.43920000
S      -49.43380000     -32.23320000     -72.56310000
S      -49.38100000     -34.38980000     -70.19150000
H      -47.59370000     -35.14090000     -68.56570000
