40
Properties=species:S:1:pos:R:3 #=T CELL(abcABC):=T 1.889726e+02=T 90.00000=T Traj:=T positionsangstrom=T Step:=T 0=T Bead:=T pbc="F F F"
C      -48.96860000     -32.55690000     -71.57060000
C      -48.38450000     -32.92090000     -70.36920000
C      -48.10160000     -34.30550000     -70.15820000
C      -48.34460000     -35.29400000     -71.16950000
C      -48.88090000     -34.88150000     -72.42530000
C      -49.19010000     -33.51050000     -72.58210000
H      -49.29250000     -31.54260000     -71.61770000
H      -47.78390000     -34.64640000     -69.16410000
H      -49.05070000     -35.62430000     -73.20560000
H      -49.60520000     -33.17270000     -73.48490000
C      -47.94930000     -36.71090000     -70.84160000
H      -48.10310000     -37.34760000     -71.74610000
H      -48.55950000     -37.18240000     -70.03810000
C      -48.38980000     -31.99630000     -69.20360000
H      -49.39580000     -31.61170000     -69.09140000
H      -47.96260000     -32.34530000     -68.23960000
S      -46.20320000     -37.02560000     -70.31840000
S      -47.29510000     -30.48510000     -69.66450000
C      -45.19080000     -36.09790000     -71.46720000
H      -44.38350000     -36.70460000     -71.75880000
H      -45.76260000     -35.90020000     -72.35430000
C      -45.70420000     -31.25260000     -70.11570000
H      -45.72910000     -32.22390000     -69.69630000
H      -44.85190000     -30.70110000     -69.73900000
C      -45.45090000     -31.35120000     -71.62810000
H      -46.12080000     -32.15540000     -72.00310000
H      -45.82730000     -30.39100000     -71.93450000
C      -44.77670000     -34.72030000     -70.93830000
H      -44.83060000     -34.81020000     -69.89010000
H      -45.60610000     -34.05870000     -71.23380000
C      -43.44520000     -34.23540000     -71.39220000
C      -42.27580000     -34.93950000     -71.38090000
C      -43.24110000     -32.87150000     -71.89440000
H      -42.11250000     -35.94840000     -70.91220000
C      -41.90560000     -32.70160000     -72.35100000
C      -44.04400000     -31.65860000     -72.01080000
C      -43.32670000     -30.65820000     -72.64540000
S      -40.85320000     -34.08680000     -72.04820000
S      -41.63940000     -31.09660000     -73.01710000
H      -43.69110000     -29.61970000     -72.88230000
