40
Properties=species:S:1:pos:R:3 #=T CELL(abcABC):=T 1.889726e+02=T 90.00000=T Traj:=T positionsangstrom=T Step:=T 0=T Bead:=T pbc="F F F"
C      -49.03140000     -32.58640000     -71.57390000
C      -48.46060000     -33.04190000     -70.36540000
C      -48.08580000     -34.38840000     -70.20610000
C      -48.35470000     -35.31300000     -71.24600000
C      -48.86770000     -34.83330000     -72.45690000
C      -49.22590000     -33.48480000     -72.64680000
H      -49.31260000     -31.48060000     -71.60170000
H      -47.64160000     -34.72100000     -69.27100000
H      -48.96190000     -35.62570000     -73.23300000
H      -49.54110000     -33.16310000     -73.66100000
C      -47.95270000     -36.75870000     -71.13370000
H      -47.88200000     -37.15390000     -72.16560000
H      -48.77080000     -37.26710000     -70.70430000
C      -48.15700000     -32.01620000     -69.21630000
H      -49.17430000     -31.63030000     -68.89510000
H      -47.82310000     -32.63660000     -68.35480000
S      -46.32020000     -36.98370000     -70.25110000
S      -47.19750000     -30.57880000     -69.60480000
C      -45.15410000     -36.12370000     -71.39150000
H      -44.26960000     -36.71790000     -71.38220000
H      -45.58550000     -36.14690000     -72.44960000
C      -45.54090000     -31.11540000     -70.25370000
H      -45.24220000     -31.90610000     -69.50990000
H      -44.88860000     -30.25840000     -70.10730000
C      -45.50830000     -31.51990000     -71.70910000
H      -46.07730000     -32.38750000     -72.09890000
H      -45.96410000     -30.77880000     -72.43560000
C      -44.82720000     -34.78070000     -70.79250000
H      -44.68160000     -34.75240000     -69.66340000
H      -45.58460000     -34.02550000     -70.90350000
C      -43.49050000     -34.20160000     -71.37190000
C      -42.36010000     -34.95090000     -71.51080000
C      -43.27570000     -32.86380000     -71.94470000
H      -42.27800000     -36.02650000     -71.34160000
C      -41.93220000     -32.68550000     -72.40570000
C      -44.03170000     -31.66290000     -72.04530000
C      -43.29650000     -30.58980000     -72.57380000
S      -40.91580000     -34.02820000     -72.00770000
S      -41.60800000     -31.00070000     -72.87160000
H      -43.58720000     -29.55980000     -72.83130000
