40
Properties=species:S:1:pos:R:3 #=T CELL(abcABC):=T 1.889726e+02=T 90.00000=T Traj:=T positionsangstrom=T Step:=T 0=T Bead:=T pbc="F F F"
C      -48.93860000     -32.51410000     -71.57180000
C      -48.30310000     -33.07430000     -70.43980000
C      -48.11430000     -34.41910000     -70.31150000
C      -48.36430000     -35.26100000     -71.35430000
C      -48.84700000     -34.72800000     -72.55450000
C      -49.21170000     -33.37300000     -72.64620000
H      -49.09520000     -31.36590000     -71.60420000
H      -47.56160000     -34.81230000     -69.44260000
H      -48.98320000     -35.36050000     -73.40730000
H      -49.69420000     -33.00780000     -73.55970000
C      -48.01270000     -36.70410000     -71.24350000
H      -47.91230000     -37.23190000     -72.22350000
H      -48.78770000     -37.16380000     -70.60850000
C      -48.02880000     -32.26470000     -69.21180000
H      -48.83400000     -31.95430000     -68.58490000
H      -47.33820000     -32.81500000     -68.64190000
S      -46.49270000     -37.09820000     -70.26510000
S      -47.18340000     -30.60320000     -69.56150000
C      -45.08380000     -36.28400000     -71.14990000
H      -44.18020000     -36.77120000     -70.81810000
H      -45.19690000     -36.39280000     -72.22530000
C      -45.53300000     -31.15700000     -70.16440000
H      -45.18760000     -32.03520000     -69.60290000
H      -44.78570000     -30.42580000     -69.89720000
C      -45.48660000     -31.49440000     -71.71630000
H      -46.17480000     -32.26970000     -71.83470000
H      -45.87310000     -30.57930000     -72.17700000
C      -44.81250000     -34.75490000     -70.79390000
H      -44.97410000     -34.80120000     -69.67100000
H      -45.64040000     -34.19360000     -71.15090000
C      -43.48870000     -34.19560000     -71.37300000
C      -42.34190000     -34.89920000     -71.51300000
C      -43.24590000     -32.79600000     -71.82030000
H      -42.22590000     -35.87390000     -71.17270000
C      -41.92470000     -32.58900000     -72.25810000
C      -44.06440000     -31.68240000     -72.13870000
C      -43.34040000     -30.66940000     -72.73570000
S      -40.92860000     -33.95980000     -72.09230000
S      -41.62480000     -30.93460000     -72.79120000
H      -43.73350000     -29.71410000     -72.96230000
