40
Properties=species:S:1:pos:R:3 #=T CELL(abcABC):=T 1.889726e+02=T 90.00000=T Traj:=T positionsangstrom=T Step:=T 0=T Bead:=T pbc="F F F"
C      -48.84240000     -32.44610000     -71.50280000
C      -48.25400000     -33.04940000     -70.37180000
C      -48.05650000     -34.40950000     -70.34200000
C      -48.27100000     -35.16940000     -71.47650000
C      -48.94900000     -34.57010000     -72.60100000
C      -49.24620000     -33.25180000     -72.58780000
H      -49.12920000     -31.38480000     -71.57300000
H      -47.81800000     -34.96170000     -69.41710000
H      -49.24700000     -35.26310000     -73.36900000
H      -49.76930000     -32.77100000     -73.36940000
C      -47.74540000     -36.57880000     -71.57170000
H      -47.35840000     -36.71100000     -72.58070000
H      -48.49390000     -37.42030000     -71.50060000
C      -48.09330000     -32.17930000     -69.17220000
H      -49.13200000     -31.94840000     -68.78960000
H      -47.58180000     -32.75470000     -68.36450000
S      -46.43800000     -37.02630000     -70.35180000
S      -47.28160000     -30.57480000     -69.44150000
C      -44.85180000     -36.33310000     -71.06340000
H      -44.07380000     -36.82610000     -70.36030000
H      -44.65030000     -36.78130000     -72.01230000
C      -45.60830000     -31.16410000     -70.08930000
H      -45.48160000     -32.11150000     -69.63140000
H      -44.84710000     -30.37610000     -69.78670000
C      -45.49390000     -31.45130000     -71.60990000
H      -46.15350000     -32.31330000     -71.87140000
H      -45.73620000     -30.55370000     -72.22910000
C      -44.91240000     -34.82060000     -71.03970000
H      -45.13940000     -34.40190000     -70.09740000
H      -45.58730000     -34.51280000     -71.84730000
C      -43.52860000     -34.20740000     -71.44410000
C      -42.40380000     -34.94900000     -71.44910000
C      -43.26360000     -32.84960000     -71.88000000
H      -42.30360000     -35.96700000     -71.24920000
C      -41.94300000     -32.67020000     -72.24530000
C      -44.04080000     -31.71110000     -72.03360000
C      -43.33070000     -30.63490000     -72.48350000
S      -40.95630000     -34.05150000     -71.96800000
S      -41.66480000     -31.09780000     -72.92570000
H      -43.80690000     -29.73180000     -72.66910000
