40
Properties=species:S:1:pos:R:3 #=T CELL(abcABC):=T 1.889726e+02=T 90.00000=T Traj:=T positionsangstrom=T Step:=T 0=T Bead:=T pbc="F F F"
C      -46.27000000     -35.13690000     -74.87750000
C      -44.94120000     -34.62990000     -74.60440000
C      -44.23880000     -35.13910000     -73.50360000
C      -44.81550000     -36.12390000     -72.66120000
C      -46.08520000     -36.59350000     -72.98950000
C      -46.83850000     -36.10720000     -74.01970000
H      -46.80370000     -34.78850000     -75.71920000
H      -43.34980000     -34.66850000     -73.25320000
H      -46.53050000     -37.34520000     -72.30320000
H      -47.83540000     -36.52830000     -74.19010000
C      -44.08160000     -36.75170000     -71.45580000
H      -43.54930000     -37.66580000     -71.78690000
H      -44.82570000     -37.10080000     -70.74220000
C      -44.37360000     -33.63130000     -75.60360000
H      -43.55340000     -34.11210000     -76.06920000
H      -45.17580000     -33.41470000     -76.41480000
S      -42.88650000     -35.63880000     -70.61910000
S      -43.91950000     -32.04620000     -74.80800000
C      -43.96950000     -34.82610000     -69.38370000
H      -44.99250000     -34.76560000     -69.77210000
H      -44.03630000     -35.46540000     -68.50120000
C      -45.10120000     -31.71970000     -73.40000000
H      -46.07790000     -31.98370000     -73.86210000
H      -45.11540000     -30.57980000     -73.30450000
C      -44.94500000     -32.36280000     -72.02180000
H      -45.14340000     -33.36330000     -71.98080000
H      -43.85670000     -32.20010000     -71.76370000
C      -43.52580000     -33.40690000     -68.94500000
H      -43.09660000     -32.93000000     -69.77110000
H      -42.81670000     -33.33360000     -68.13090000
C      -44.81880000     -32.64860000     -68.59750000
C      -45.34750000     -32.72130000     -67.33420000
C      -45.78680000     -32.08220000     -69.56180000
H      -44.78950000     -33.01280000     -66.51320000
C      -46.82820000     -31.60000000     -68.83600000
C      -45.89690000     -31.82090000     -70.97880000
C      -47.08050000     -31.10230000     -71.17740000
S      -46.82130000     -31.85310000     -67.12580000
S      -48.02680000     -30.74880000     -69.77440000
H      -47.40770000     -30.90000000     -72.27080000
