40
Properties=species:S:1:pos:R:3 #=T CELL(abcABC):=T 1.889726e+02=T 90.00000=T Traj:=T positionsangstrom=T Step:=T 0=T Bead:=T pbc="F F F"
C      -44.12520000     -31.59530000     -74.33100000
C      -44.25010000     -32.69970000     -73.46660000
C      -44.11280000     -32.49190000     -72.05220000
C      -43.98370000     -31.17970000     -71.55010000
C      -43.98740000     -30.10130000     -72.42380000
C      -44.07570000     -30.30640000     -73.80980000
H      -44.23160000     -31.77450000     -75.44780000
H      -44.06310000     -33.17360000     -71.18160000
H      -43.98330000     -29.06080000     -71.98730000
H      -44.21360000     -29.46990000     -74.48150000
C      -43.80140000     -31.07880000     -70.04980000
H      -42.86970000     -30.63330000     -69.81360000
H      -43.77630000     -32.07180000     -69.58100000
C      -44.44280000     -34.04780000     -74.00120000
H      -43.73490000     -34.27960000     -74.79270000
H      -44.15840000     -34.80970000     -73.28580000
S      -45.22840000     -30.21460000     -69.26510000
S      -46.17250000     -34.35040000     -74.62710000
C      -46.70610000     -31.17550000     -69.91430000
H      -47.58560000     -30.47020000     -69.97390000
H      -46.49080000     -31.26130000     -70.99390000
C      -47.08950000     -33.40140000     -73.31610000
H      -47.83560000     -32.84940000     -73.94720000
H      -46.35050000     -32.73590000     -72.80880000
C      -47.77470000     -34.28890000     -72.26510000
H      -48.28710000     -33.54190000     -71.63010000
H      -48.54760000     -34.87780000     -72.70410000
C      -47.19780000     -32.45960000     -69.30180000
H      -48.06130000     -32.87860000     -69.80550000
H      -47.53110000     -32.19800000     -68.27210000
C      -46.13180000     -33.61610000     -69.30730000
C      -45.21530000     -33.72680000     -68.29790000
C      -46.01300000     -34.64110000     -70.28860000
H      -45.11170000     -33.24950000     -67.28460000
C      -45.00700000     -35.55560000     -69.95310000
C      -46.73000000     -35.03620000     -71.50410000
C      -46.24460000     -36.25240000     -71.95420000
S      -44.24070000     -35.24120000     -68.38970000
S      -44.83440000     -36.88860000     -71.02730000
H      -46.43780000     -36.72300000     -72.91620000
