40
Properties=species:S:1:pos:R:3 #=T CELL(abcABC):=T 1.889726e+02=T 90.00000=T Traj:=T positionsangstrom=T Step:=T 0=T Bead:=T pbc="F F F"
C      -44.47760000     -31.24660000     -74.33000000
C      -44.44030000     -32.45530000     -73.57360000
C      -44.03680000     -32.37290000     -72.27890000
C      -43.64760000     -31.19660000     -71.58100000
C      -43.61860000     -30.00290000     -72.36590000
C      -44.05190000     -30.08960000     -73.70910000
H      -44.73180000     -31.15040000     -75.38120000
H      -43.98470000     -33.30950000     -71.70410000
H      -43.39010000     -29.07650000     -71.98580000
H      -44.09710000     -29.09140000     -74.24010000
C      -43.52160000     -31.13720000     -70.07870000
H      -42.77660000     -30.39260000     -69.73350000
H      -43.26070000     -32.13770000     -69.67540000
C      -44.71730000     -33.81850000     -74.19150000
H      -44.12380000     -34.03250000     -75.06500000
H      -44.35580000     -34.62010000     -73.57320000
S      -45.09530000     -30.42750000     -69.28340000
S      -46.53510000     -34.03490000     -74.54250000
C      -46.50040000     -31.32390000     -70.13850000
H      -47.16860000     -30.49340000     -70.30910000
H      -46.06640000     -31.64490000     -71.08850000
C      -47.34400000     -33.35840000     -73.05360000
H      -48.22620000     -32.74100000     -73.34440000
H      -46.58980000     -32.75370000     -72.58520000
C      -47.91870000     -34.46130000     -72.09080000
H      -48.56310000     -34.02360000     -71.39920000
H      -48.49880000     -35.20970000     -72.54800000
C      -47.09270000     -32.54290000     -69.38720000
H      -48.01340000     -32.77840000     -70.03000000
H      -47.55710000     -32.34370000     -68.45750000
C      -46.15470000     -33.71840000     -69.34180000
C      -45.24710000     -33.83530000     -68.30580000
C      -45.94520000     -34.79510000     -70.30270000
H      -45.16660000     -33.19250000     -67.49600000
C      -44.87170000     -35.58890000     -69.93580000
C      -46.71590000     -35.21290000     -71.41740000
C      -46.14410000     -36.40000000     -71.95320000
S      -44.26280000     -35.32210000     -68.33140000
S      -44.75480000     -36.94990000     -71.04230000
H      -46.49410000     -36.97340000     -72.81640000
