40
Properties=species:S:1:pos:R:3 #=T CELL(abcABC):=T 1.889726e+02=T 90.00000=T Traj:=T positionsangstrom=T Step:=T 0=T Bead:=T pbc="F F F"
C      -43.90030000     -31.30550000     -74.50080000
C      -44.38200000     -32.35550000     -73.76910000
C      -44.05630000     -32.37650000     -72.40570000
C      -43.64880000     -31.27650000     -71.66610000
C      -43.40670000     -30.10140000     -72.45120000
C      -43.55170000     -30.11140000     -73.82700000
H      -43.93670000     -31.42020000     -75.59360000
H      -44.31740000     -33.32070000     -71.87120000
H      -43.13740000     -29.21620000     -71.86980000
H      -43.41280000     -29.26090000     -74.46700000
C      -43.34320000     -31.28530000     -70.16160000
H      -42.44600000     -30.76760000     -69.97340000
H      -43.08780000     -32.28530000     -69.82860000
C      -44.99690000     -33.64110000     -74.28720000
H      -44.58970000     -33.90160000     -75.25620000
H      -44.81130000     -34.44870000     -73.54840000
S      -44.72450000     -30.60330000     -69.04410000
S      -46.91050000     -33.65360000     -74.51440000
C      -46.33550000     -31.14050000     -69.77520000
H      -47.09350000     -30.33560000     -69.64540000
H      -46.29740000     -31.19750000     -70.85370000
C      -47.40460000     -33.22010000     -72.82770000
H      -48.08400000     -32.33370000     -72.84340000
H      -46.56600000     -32.79510000     -72.26920000
C      -48.01030000     -34.43800000     -72.08020000
H      -48.79330000     -34.04920000     -71.30610000
H      -48.62510000     -35.15290000     -72.63370000
C      -46.92630000     -32.48880000     -69.31170000
H      -47.75940000     -32.83660000     -69.93380000
H      -47.33920000     -32.37800000     -68.34610000
C      -46.00120000     -33.64810000     -69.26580000
C      -44.98570000     -33.85320000     -68.37970000
C      -46.17900000     -34.78580000     -70.15950000
H      -44.73690000     -33.24440000     -67.53980000
C      -45.18080000     -35.74550000     -69.95130000
C      -46.91120000     -35.16960000     -71.38500000
C      -46.51710000     -36.40010000     -71.86360000
S      -44.11550000     -35.43860000     -68.63210000
S      -45.19820000     -37.12340000     -71.02410000
H      -46.91360000     -36.88320000     -72.77920000
