40
Properties=species:S:1:pos:R:3 #=T CELL(abcABC):=T 1.889726e+02=T 90.00000=T Traj:=T positionsangstrom=T Step:=T 0=T Bead:=T pbc="F F F"
C      -43.80440000     -31.67910000     -74.47490000
C      -44.28140000     -32.86060000     -73.84220000
C      -43.99900000     -33.04910000     -72.45940000
C      -43.34820000     -32.00270000     -71.81970000
C      -43.02720000     -30.80500000     -72.39470000
C      -43.26190000     -30.64020000     -73.74140000
H      -43.82630000     -31.57870000     -75.55990000
H      -44.32290000     -33.89880000     -71.80940000
H      -42.55640000     -30.03790000     -71.77490000
H      -43.05700000     -29.72220000     -74.17000000
C      -42.92440000     -32.13600000     -70.38280000
H      -41.91050000     -31.66900000     -70.25370000
H      -43.15210000     -33.13570000     -70.02020000
C      -44.99500000     -34.02730000     -74.51580000
H      -44.61880000     -34.01090000     -75.47030000
H      -44.76930000     -34.96800000     -74.04290000
S      -43.92750000     -30.95080000     -69.14880000
S      -46.84930000     -33.77280000     -74.51490000
C      -45.65170000     -30.95190000     -69.77320000
H      -46.03670000     -29.99470000     -69.90660000
H      -45.63680000     -31.38020000     -70.79900000
C      -47.17610000     -32.64630000     -73.09430000
H      -47.75250000     -31.74040000     -73.40570000
H      -46.26860000     -32.23880000     -72.72850000
C      -48.11510000     -33.25360000     -71.99070000
H      -48.41230000     -32.39410000     -71.33500000
H      -48.99720000     -33.61910000     -72.47240000
C      -46.50460000     -31.96540000     -68.97560000
H      -47.60460000     -31.89950000     -69.27030000
H      -46.50000000     -31.74990000     -67.93280000
C      -46.04430000     -33.40350000     -69.01670000
C      -45.12680000     -33.91310000     -68.13210000
C      -46.37630000     -34.33690000     -70.12910000
H      -44.72420000     -33.52830000     -67.16460000
C      -45.66770000     -35.50700000     -69.93860000
C      -47.34380000     -34.33150000     -71.25710000
C      -47.16760000     -35.50950000     -71.93060000
S      -44.64240000     -35.56280000     -68.47070000
S      -46.00000000     -36.72880000     -71.14680000
H      -47.81800000     -35.87760000     -72.70720000
