40
Properties=species:S:1:pos:R:3 #=T CELL(abcABC):=T 1.889726e+02=T 90.00000=T Traj:=T positionsangstrom=T Step:=T 0=T Bead:=T pbc="F F F"
C      -42.12610000     -34.64460000     -70.84540000
C      -42.47970000     -33.53930000     -69.97450000
C      -43.28860000     -33.72790000     -68.85630000
C      -43.78250000     -35.03110000     -68.60820000
C      -43.45550000     -36.06930000     -69.40450000
C      -42.60560000     -35.92540000     -70.54590000
H      -41.68240000     -34.33270000     -71.87250000
H      -43.55710000     -32.90950000     -68.20720000
H      -43.87030000     -37.05090000     -69.06600000
H      -42.61060000     -36.73840000     -71.26080000
C      -44.64890000     -35.12940000     -67.35450000
H      -44.12740000     -34.72150000     -66.47110000
H      -44.84880000     -36.19490000     -67.17210000
C      -42.00660000     -32.08490000     -70.34320000
H      -42.74490000     -31.31210000     -69.99990000
H      -40.99370000     -31.87580000     -69.94400000
S      -46.19300000     -34.13030000     -67.38860000
S      -41.71730000     -31.79200000     -72.23020000
C      -47.01900000     -34.21760000     -69.00270000
H      -47.50040000     -35.15470000     -69.24850000
H      -47.77590000     -33.50000000     -68.89890000
C      -43.44460000     -31.64740000     -72.79710000
H      -43.60160000     -31.14230000     -73.86320000
H      -43.88860000     -30.96110000     -72.13700000
C      -44.17980000     -33.07940000     -72.95760000
H      -43.55100000     -33.57530000     -73.78390000
H      -44.21130000     -33.64030000     -72.03300000
C      -46.25030000     -33.77000000     -70.30860000
H      -45.55090000     -34.45970000     -70.71290000
H      -45.52040000     -33.02410000     -69.96140000
C      -47.19250000     -33.27830000     -71.38780000
C      -48.57770000     -33.13080000     -71.16520000
C      -46.83320000     -32.97950000     -72.79990000
H      -49.19530000     -33.19300000     -70.25770000
C      -47.92490000     -32.62710000     -73.54220000
C      -45.55910000     -32.93920000     -73.48330000
C      -45.76830000     -32.69940000     -74.81860000
S      -49.45980000     -32.72960000     -72.68120000
S      -47.48110000     -32.58030000     -75.24480000
H      -44.97950000     -32.74050000     -75.55910000
