40
Properties=species:S:1:pos:R:3 #=T CELL(abcABC):=T 1.889726e+02=T 90.00000=T Traj:=T positionsangstrom=T Step:=T 0=T Bead:=T pbc="F F F"
C      -42.00800000     -34.64690000     -70.79290000
C      -42.32700000     -33.52290000     -70.03140000
C      -43.20340000     -33.69600000     -68.92260000
C      -43.79300000     -34.92480000     -68.65970000
C      -43.46060000     -36.06130000     -69.43810000
C      -42.55220000     -35.91120000     -70.47770000
H      -41.21430000     -34.61060000     -71.60020000
H      -43.46630000     -32.81170000     -68.26950000
H      -43.90540000     -37.07260000     -69.28250000
H      -42.07460000     -36.77880000     -70.93790000
C      -44.79630000     -35.12460000     -67.57110000
H      -44.24580000     -35.27240000     -66.63810000
H      -45.28700000     -36.11140000     -67.57000000
C      -41.80840000     -32.21390000     -70.42970000
H      -42.40020000     -31.46800000     -69.98680000
H      -40.75280000     -32.10990000     -70.05610000
S      -46.11660000     -33.89420000     -67.32600000
S      -41.75340000     -31.86490000     -72.21000000
C      -47.09910000     -34.10490000     -68.90150000
H      -47.26450000     -35.16640000     -68.99940000
H      -48.09360000     -33.62370000     -68.64620000
C      -43.52640000     -31.65980000     -72.79640000
H      -43.45150000     -31.25180000     -73.84650000
H      -43.93310000     -31.02580000     -72.04420000
C      -44.29710000     -33.02990000     -72.64940000
H      -43.63240000     -33.86120000     -72.87080000
H      -44.58650000     -33.08290000     -71.63500000
C      -46.46260000     -33.48200000     -70.13230000
H      -45.65290000     -34.15960000     -70.43170000
H      -46.13620000     -32.47520000     -69.87320000
C      -47.38060000     -33.25860000     -71.34640000
C      -48.75720000     -33.07790000     -71.29570000
C      -46.89890000     -33.06780000     -72.72430000
H      -49.31870000     -33.10310000     -70.31650000
C      -47.91310000     -32.87470000     -73.61130000
C      -45.57770000     -33.02540000     -73.34810000
C      -45.72440000     -32.78490000     -74.70440000
S      -49.48290000     -32.80660000     -72.87660000
S      -47.32760000     -32.68150000     -75.33170000
H      -44.94790000     -32.70120000     -75.41800000
