40
Properties=species:S:1:pos:R:3 #=T CELL(abcABC):=T 1.889726e+02=T 90.00000=T Traj:=T positionsangstrom=T Step:=T 0=T Bead:=T pbc="F F F"
C      -46.42930000     -35.31020000     -75.00310000
C      -45.13320000     -34.81090000     -74.84510000
C      -44.26500000     -35.48880000     -73.98010000
C      -44.67960000     -36.56490000     -73.16260000
C      -45.99470000     -36.92690000     -73.24160000
C      -46.86180000     -36.42300000     -74.25800000
H      -47.17870000     -34.73510000     -75.60040000
H      -43.25480000     -35.09270000     -73.96940000
H      -46.41650000     -37.64400000     -72.55750000
H      -47.89260000     -36.71390000     -74.44130000
C      -43.67530000     -37.12640000     -72.21280000
H      -42.73610000     -37.45250000     -72.67660000
H      -44.05180000     -37.97210000     -71.66100000
C      -44.79190000     -33.51170000     -75.47370000
H      -44.21800000     -33.62450000     -76.41030000
H      -45.75790000     -33.00020000     -75.83170000
S      -43.06950000     -35.79000000     -70.95280000
S      -43.96550000     -32.32720000     -74.33100000
C      -44.53300000     -34.76540000     -70.41980000
H      -44.96240000     -34.28270000     -71.27050000
H      -45.28220000     -35.51260000     -69.88200000
C      -45.24020000     -32.16310000     -73.00680000
H      -45.67240000     -33.15670000     -72.69230000
H      -46.09580000     -31.72440000     -73.53180000
C      -44.78260000     -31.34190000     -71.76250000
H      -43.88890000     -31.84680000     -71.36490000
H      -44.57010000     -30.35340000     -72.00540000
C      -43.96940000     -33.74110000     -69.43140000
H      -43.28600000     -32.96450000     -69.88050000
H      -43.44950000     -34.38800000     -68.65350000
C      -44.96980000     -32.96370000     -68.67740000
C      -45.35530000     -33.10090000     -67.39520000
C      -45.77710000     -31.96940000     -69.39210000
H      -44.95270000     -33.79980000     -66.61790000
C      -46.75140000     -31.33350000     -68.51260000
C      -45.85020000     -31.31390000     -70.68170000
C      -46.92090000     -30.35490000     -70.77490000
S      -46.50210000     -31.83120000     -66.87230000
S      -47.66190000     -30.03600000     -69.18320000
H      -47.42460000     -29.90780000     -71.57090000
