40
Properties=species:S:1:pos:R:3 #=T CELL(abcABC):=T 1.889726e+02=T 90.00000=T Traj:=T positionsangstrom=T Step:=T 0=T Bead:=T pbc="F F F"
C      -43.57650000     -31.96830000     -74.17220000
C      -44.11820000     -33.04270000     -73.54370000
C      -43.56650000     -33.30780000     -72.29770000
C      -42.72110000     -32.40970000     -71.58810000
C      -42.08120000     -31.35610000     -72.34400000
C      -42.55730000     -31.19370000     -73.65840000
H      -44.14770000     -31.63920000     -75.01980000
H      -44.06590000     -34.16430000     -71.71870000
H      -41.40390000     -30.61920000     -71.90990000
H      -42.25030000     -30.35470000     -74.27710000
C      -42.49370000     -32.47340000     -70.13660000
H      -41.40220000     -32.44220000     -69.93810000
H      -42.74090000     -33.41120000     -69.62400000
C      -45.19640000     -33.89250000     -74.07190000
H      -44.97910000     -34.31520000     -75.03960000
H      -45.27940000     -34.89470000     -73.53450000
S      -43.26490000     -30.93940000     -69.38950000
S      -46.87030000     -33.11350000     -74.40470000
C      -45.02050000     -30.91490000     -70.05290000
H      -45.24930000     -29.87020000     -69.81790000
H      -44.91640000     -31.17960000     -71.11430000
C      -47.53860000     -32.14300000     -72.94580000
H      -48.22490000     -31.46680000     -73.42550000
H      -46.67380000     -31.64700000     -72.55560000
C      -48.29590000     -32.97400000     -71.87560000
H      -48.47220000     -32.36780000     -71.04200000
H      -49.22140000     -33.28870000     -72.26150000
C      -45.99640000     -31.84980000     -69.40810000
H      -46.98280000     -31.55550000     -69.83370000
H      -46.22540000     -31.54420000     -68.38480000
C      -45.86550000     -33.34680000     -69.41670000
C      -45.01190000     -33.95770000     -68.52590000
C      -46.62270000     -34.22510000     -70.26220000
H      -44.50610000     -33.44400000     -67.70660000
C      -46.27980000     -35.60110000     -70.00420000
C      -47.62030000     -34.19210000     -71.35020000
C      -47.89670000     -35.42290000     -71.85660000
S      -45.14910000     -35.71060000     -68.61840000
S      -47.10270000     -36.76790000     -71.03460000
H      -48.51490000     -35.70340000     -72.60270000
