40
Properties=species:S:1:pos:R:3 #=T CELL(abcABC):=T 1.889726e+02=T 90.00000=T Traj:=T positionsangstrom=T Step:=T 0=T Bead:=T pbc="F F F"
C      -43.18220000     -32.84800000     -74.35810000
C      -44.07790000     -33.40970000     -73.47680000
C      -43.97340000     -32.99970000     -72.11260000
C      -42.92760000     -32.20460000     -71.62310000
C      -42.08840000     -31.58150000     -72.56850000
C      -42.24340000     -31.82870000     -73.92880000
H      -43.35580000     -32.90510000     -75.43470000
H      -44.55030000     -33.40640000     -71.36070000
H      -41.30700000     -30.85290000     -72.25200000
H      -41.70640000     -31.23510000     -74.67560000
C      -42.65780000     -32.23560000     -70.15160000
H      -41.65150000     -31.95580000     -69.99280000
H      -42.72190000     -33.25000000     -69.70060000
C      -45.17730000     -34.13810000     -74.09470000
H      -44.79580000     -34.57710000     -75.04320000
H      -45.60520000     -35.01040000     -73.48880000
S      -43.64570000     -31.08000000     -69.03660000
S      -46.63410000     -33.08520000     -74.56930000
C      -45.47360000     -30.93010000     -69.64800000
H      -45.62940000     -29.86730000     -69.47760000
H      -45.36160000     -31.13040000     -70.78080000
C      -46.98030000     -32.09880000     -72.99290000
H      -47.19830000     -31.04660000     -73.18100000
H      -46.09660000     -32.05620000     -72.51570000
C      -48.02410000     -32.70690000     -71.99110000
H      -48.22770000     -32.04680000     -71.10750000
H      -48.92280000     -32.97830000     -72.54420000
C      -46.46930000     -31.88440000     -68.95790000
H      -47.44780000     -31.58750000     -69.25180000
H      -46.57510000     -31.60160000     -67.90630000
C      -46.10970000     -33.31320000     -69.17180000
C      -45.25310000     -33.95780000     -68.30680000
C      -46.64750000     -34.16220000     -70.25270000
H      -44.73900000     -33.40740000     -67.51340000
C      -46.20390000     -35.41360000     -70.06970000
C      -47.47220000     -33.96840000     -71.41970000
C      -47.65140000     -35.16780000     -72.06090000
S      -45.15730000     -35.63770000     -68.68720000
S      -46.92090000     -36.50420000     -71.29950000
H      -48.44830000     -35.24640000     -72.82870000
