40
Properties=species:S:1:pos:R:3 #=T CELL(abcABC):=T 1.889726e+02=T 90.00000=T Traj:=T positionsangstrom=T Step:=T 0=T Bead:=T pbc="F F F"
C      -43.15240000     -32.62930000     -74.38960000
C      -44.01080000     -33.31250000     -73.51280000
C      -43.91740000     -33.18410000     -72.13820000
C      -42.90680000     -32.38190000     -71.54480000
C      -42.10570000     -31.67030000     -72.43810000
C      -42.19620000     -31.77350000     -73.83520000
H      -43.21480000     -32.69240000     -75.43280000
H      -44.63270000     -33.66480000     -71.46210000
H      -41.32310000     -30.98210000     -71.99760000
H      -41.55330000     -31.23920000     -74.49960000
C      -42.75570000     -32.29990000     -70.03090000
H      -41.71040000     -32.09520000     -69.75860000
H      -43.15500000     -33.22450000     -69.63570000
C      -45.17860000     -34.14890000     -74.11130000
H      -44.85390000     -34.77620000     -74.87570000
H      -45.60910000     -34.74710000     -73.31750000
S      -43.69250000     -30.97330000     -69.06940000
S      -46.63500000     -33.16210000     -74.62210000
C      -45.30200000     -30.97230000     -69.82600000
H      -45.65930000     -29.97530000     -69.88360000
H      -45.24890000     -31.26850000     -70.87180000
C      -46.98980000     -32.05430000     -73.11000000
H      -47.46880000     -31.13860000     -73.65420000
H      -45.95060000     -31.83290000     -72.76480000
C      -47.90620000     -32.64870000     -72.01320000
H      -48.11570000     -31.79880000     -71.22200000
H      -48.90230000     -32.65400000     -72.45020000
C      -46.32040000     -31.78260000     -69.01360000
H      -47.34360000     -31.45800000     -69.27250000
H      -46.09070000     -31.61450000     -67.97640000
C      -46.15580000     -33.29750000     -69.13180000
C      -45.36150000     -33.99980000     -68.21240000
C      -46.63940000     -34.13050000     -70.23260000
H      -45.00250000     -33.46920000     -67.35930000
C      -46.39000000     -35.47250000     -69.96810000
C      -47.45840000     -33.91820000     -71.42360000
C      -47.65440000     -35.10600000     -72.09710000
S      -45.21700000     -35.68770000     -68.65290000
S      -46.90770000     -36.52240000     -71.29080000
H      -48.03130000     -35.09600000     -73.12790000
