40
Properties=species:S:1:pos:R:3 #=T CELL(abcABC):=T 1.889726e+02=T 90.00000=T Traj:=T positionsangstrom=T Step:=T 0=T Bead:=T pbc="F F F"
C      -43.64510000     -29.56800000     -71.07190000
C      -44.91000000     -30.14560000     -71.29510000
C      -45.09320000     -30.89970000     -72.48120000
C      -44.10030000     -30.85770000     -73.49630000
C      -42.88530000     -30.34420000     -73.20240000
C      -42.59350000     -29.79710000     -71.95650000
H      -43.50270000     -29.03040000     -70.21280000
H      -45.98230000     -31.49560000     -72.60970000
H      -42.07420000     -30.34840000     -73.93350000
H      -41.66310000     -29.32770000     -71.71880000
C      -44.52490000     -31.37680000     -74.83610000
H      -43.93470000     -30.91360000     -75.64790000
H      -45.62730000     -31.15360000     -74.95670000
C      -45.94620000     -29.92100000     -70.27470000
H      -46.01920000     -28.78750000     -70.18000000
H      -46.85120000     -30.39900000     -70.65970000
S      -44.08340000     -33.23680000     -75.18070000
S      -45.58980000     -30.53640000     -68.61190000
C      -44.94420000     -34.13240000     -73.84890000
H      -45.90130000     -33.63290000     -73.68160000
H      -45.20690000     -35.17310000     -74.26730000
C      -45.43300000     -32.32690000     -68.76110000
H      -45.59510000     -32.80970000     -67.84210000
H      -44.38600000     -32.55710000     -69.08240000
C      -46.44940000     -32.84150000     -69.81660000
H      -47.40930000     -32.46830000     -69.59390000
H      -46.14980000     -32.48000000     -70.81200000
C      -44.30870000     -34.38910000     -72.49980000
H      -44.17580000     -33.41590000     -71.97560000
H      -43.32530000     -34.70610000     -72.69480000
C      -45.07500000     -35.49070000     -71.72160000
C      -45.02250000     -36.80230000     -72.24440000
C      -45.95490000     -35.36400000     -70.57340000
H      -44.28740000     -37.20880000     -72.86490000
C      -46.39750000     -36.62890000     -70.14430000
C      -46.62330000     -34.36080000     -69.83710000
C      -47.44370000     -34.87650000     -68.82200000
S      -45.99090000     -37.89750000     -71.19260000
S      -47.30620000     -36.53340000     -68.66580000
H      -47.81510000     -34.22090000     -68.06630000
