40
Properties=species:S:1:pos:R:3 #=T CELL(abcABC):=T 1.889726e+02=T 90.00000=T Traj:=T positionsangstrom=T Step:=T 0=T Bead:=T pbc="F F F"
C      -46.53000000     -35.32690000     -74.89590000
C      -45.25210000     -34.83090000     -74.74390000
C      -44.33420000     -35.48390000     -73.94100000
C      -44.67020000     -36.61350000     -73.22950000
C      -45.93690000     -37.14040000     -73.45620000
C      -46.88010000     -36.51650000     -74.25230000
H      -47.20920000     -34.76090000     -75.50310000
H      -43.40500000     -34.98290000     -73.84010000
H      -46.19850000     -38.06630000     -73.05390000
H      -47.80120000     -36.91770000     -74.45180000
C      -43.78530000     -37.24930000     -72.11480000
H      -42.97040000     -37.77220000     -72.63270000
H      -44.41730000     -37.96100000     -71.51560000
C      -44.80560000     -33.54130000     -75.45600000
H      -44.02960000     -33.70930000     -76.13530000
H      -45.60980000     -32.99340000     -75.94430000
S      -43.03750000     -35.97750000     -71.07070000
S      -44.18860000     -32.29950000     -74.21270000
C      -44.55830000     -34.93200000     -70.62370000
H      -44.78420000     -34.39970000     -71.52990000
H      -45.46690000     -35.49280000     -70.34420000
C      -45.59040000     -32.13450000     -73.00260000
H      -46.09810000     -33.02210000     -72.69970000
H      -46.36100000     -31.48820000     -73.44640000
C      -44.88070000     -31.38810000     -71.80430000
H      -43.97080000     -31.92800000     -71.46340000
H      -44.37570000     -30.41550000     -72.21950000
C      -44.08340000     -33.97710000     -69.55240000
H      -43.26460000     -33.52190000     -70.01200000
H      -43.61890000     -34.55750000     -68.74210000
C      -44.97640000     -32.94460000     -68.84930000
C      -45.25450000     -33.13810000     -67.54730000
C      -45.77170000     -31.80880000     -69.36410000
H      -44.93290000     -33.87120000     -66.83270000
C      -46.61970000     -31.16520000     -68.42000000
C      -45.72040000     -31.04920000     -70.58140000
C      -46.54820000     -29.92660000     -70.58060000
S      -46.44190000     -31.93500000     -66.88680000
S      -47.44540000     -29.76350000     -69.06790000
H      -46.70750000     -29.11740000     -71.27750000
