40
Properties=species:S:1:pos:R:3 #=T CELL(abcABC):=T 1.889726e+02=T 90.00000=T Traj:=T positionsangstrom=T Step:=T 0=T Bead:=T pbc="F F F"
C      -42.32780000     -32.53550000     -73.88060000
C      -42.24170000     -33.20070000     -72.63780000
C      -42.41350000     -32.42320000     -71.50220000
C      -42.65050000     -31.06690000     -71.53010000
C      -42.78000000     -30.43670000     -72.79110000
C      -42.64660000     -31.20080000     -73.97440000
H      -42.10710000     -33.13170000     -74.77050000
H      -42.21570000     -32.96400000     -70.60280000
H      -43.07740000     -29.40250000     -72.80290000
H      -42.71370000     -30.76080000     -74.95170000
C      -42.89320000     -30.36070000     -70.23210000
H      -42.15780000     -29.49900000     -70.34120000
H      -42.67690000     -30.93500000     -69.36880000
C      -41.91460000     -34.72260000     -72.56910000
H      -40.95140000     -34.93990000     -73.06780000
H      -41.90650000     -35.01880000     -71.52260000
S      -44.53730000     -29.61650000     -70.03490000
S      -42.97860000     -35.78810000     -73.74510000
C      -45.57490000     -31.10020000     -69.49190000
H      -44.86810000     -31.67870000     -68.87500000
H      -46.49210000     -30.74400000     -69.02450000
C      -44.56800000     -36.06050000     -72.82770000
H      -44.42590000     -36.88570000     -72.14460000
H      -45.35500000     -36.33810000     -73.54300000
C      -45.09300000     -34.90700000     -72.05340000
H      -44.37370000     -34.66460000     -71.27940000
H      -45.19980000     -33.93390000     -72.60340000
C      -46.12560000     -31.85730000     -70.75340000
H      -45.21770000     -32.30700000     -71.20110000
H      -46.54840000     -31.08960000     -71.45560000
C      -47.16660000     -32.85660000     -70.34760000
C      -48.28480000     -32.39680000     -69.71520000
C      -47.24140000     -34.24300000     -70.61340000
H      -48.53910000     -31.45630000     -69.32220000
C      -48.36920000     -34.84480000     -70.02710000
C      -46.43270000     -35.22510000     -71.36630000
C      -47.04010000     -36.46500000     -71.31560000
S      -49.43370000     -33.67250000     -69.22610000
S      -48.56790000     -36.55370000     -70.43330000
H      -46.61610000     -37.36120000     -71.77260000
