40
Properties=species:S:1:pos:R:3 #=T CELL(abcABC):=T 1.889726e+02=T 90.00000=T Traj:=T positionsangstrom=T Step:=T 0=T Bead:=T pbc="F F F"
C      -42.42920000     -32.44600000     -73.95050000
C      -42.35670000     -33.09250000     -72.72470000
C      -42.53810000     -32.30330000     -71.56600000
C      -42.70250000     -30.91260000     -71.63750000
C      -42.80080000     -30.30510000     -72.90900000
C      -42.60500000     -30.99050000     -74.08580000
H      -42.43550000     -33.02010000     -74.90460000
H      -42.50640000     -32.74330000     -70.57350000
H      -42.92100000     -29.20350000     -72.89050000
H      -42.72750000     -30.40060000     -75.01630000
C      -42.85200000     -30.02220000     -70.41320000
H      -42.41240000     -29.03790000     -70.56840000
H      -42.35590000     -30.48600000     -69.52750000
C      -42.24550000     -34.55450000     -72.65970000
H      -41.18270000     -34.79010000     -72.67230000
H      -42.48700000     -34.97750000     -71.66410000
S      -44.59070000     -29.58650000     -69.85770000
S      -43.10360000     -35.53120000     -73.89040000
C      -45.27640000     -31.27670000     -69.57150000
H      -44.40880000     -31.88490000     -69.39190000
H      -45.73860000     -31.19050000     -68.56660000
C      -44.66120000     -35.95040000     -73.03110000
H      -44.56480000     -36.95930000     -72.65330000
H      -45.50420000     -36.08770000     -73.69200000
C      -45.01250000     -35.00430000     -71.94720000
H      -44.23670000     -35.15380000     -71.17120000
H      -44.91220000     -33.97580000     -72.23550000
C      -46.19490000     -31.88280000     -70.68340000
H      -45.45210000     -32.29960000     -71.37440000
H      -46.77540000     -31.01540000     -71.06640000
C      -47.18080000     -32.95020000     -70.20300000
C      -48.25200000     -32.55600000     -69.50820000
C      -47.17310000     -34.38160000     -70.47060000
H      -48.45660000     -31.49260000     -69.17500000
C      -48.34790000     -35.02290000     -70.05950000
C      -46.34370000     -35.31250000     -71.23870000
C      -46.87540000     -36.57460000     -71.28530000
S      -49.40800000     -33.92860000     -69.16700000
S      -48.38220000     -36.74770000     -70.40310000
H      -46.41770000     -37.54980000     -71.59900000
