40
Properties=species:S:1:pos:R:3 #=T CELL(abcABC):=T 1.889726e+02=T 90.00000=T Traj:=T positionsangstrom=T Step:=T 0=T Bead:=T pbc="F F F"
C      -42.44750000     -31.96730000     -74.20840000
C      -42.31220000     -32.79820000     -73.05110000
C      -42.34410000     -32.15680000     -71.80070000
C      -42.72410000     -30.81890000     -71.61480000
C      -42.97100000     -30.10580000     -72.78890000
C      -42.83980000     -30.65360000     -74.09380000
H      -42.40430000     -32.39120000     -75.18340000
H      -42.22500000     -32.85090000     -70.92830000
H      -43.32410000     -29.07390000     -72.72840000
H      -42.96530000     -29.99830000     -75.00100000
C      -42.82840000     -30.26170000     -70.23980000
H      -42.13930000     -29.47360000     -69.95800000
H      -42.56620000     -31.03820000     -69.52660000
C      -41.91000000     -34.19890000     -73.19170000
H      -41.07860000     -34.48740000     -73.82760000
H      -41.66620000     -34.52690000     -72.21680000
S      -44.58770000     -29.78500000     -69.82440000
S      -43.14530000     -35.46180000     -73.94670000
C      -45.29850000     -31.45540000     -69.57310000
H      -44.56910000     -32.20830000     -69.29650000
H      -45.88760000     -31.44120000     -68.69030000
C      -44.24960000     -36.03180000     -72.47510000
H      -43.63430000     -36.16560000     -71.60310000
H      -44.76180000     -36.87490000     -72.94960000
C      -45.24910000     -34.92380000     -72.07450000
H      -44.63270000     -34.30620000     -71.43990000
H      -45.53030000     -34.28520000     -72.90210000
C      -46.17350000     -32.09780000     -70.72520000
H      -45.64190000     -32.54890000     -71.54450000
H      -46.50150000     -31.26860000     -71.36920000
C      -47.27200000     -33.02380000     -70.23860000
C      -48.30080000     -32.71390000     -69.36030000
C      -47.34440000     -34.42700000     -70.62900000
H      -48.52730000     -31.71430000     -69.03140000
C      -48.38220000     -35.07930000     -69.94080000
C      -46.45550000     -35.33710000     -71.29570000
C      -46.83390000     -36.64930000     -71.15690000
S      -49.36300000     -34.06320000     -69.06170000
S      -48.38660000     -36.80410000     -70.25530000
H      -46.44370000     -37.42210000     -71.74260000
