40
Properties=species:S:1:pos:R:3 #=T CELL(abcABC):=T 1.889726e+02=T 90.00000=T Traj:=T positionsangstrom=T Step:=T 0=T Bead:=T pbc="F F F"
C      -42.52840000     -31.95280000     -74.25550000
C      -42.29870000     -32.75180000     -73.14960000
C      -42.52000000     -32.28940000     -71.85550000
C      -42.78890000     -30.95110000     -71.60630000
C      -42.94660000     -30.13490000     -72.76680000
C      -42.83670000     -30.63160000     -74.05690000
H      -42.46970000     -32.32760000     -75.24180000
H      -42.33650000     -33.05020000     -71.09040000
H      -43.12330000     -29.08940000     -72.69790000
H      -43.00680000     -30.09250000     -74.95330000
C      -42.86810000     -30.36300000     -70.21120000
H      -42.35160000     -29.41560000     -70.25760000
H      -42.39090000     -31.05570000     -69.45210000
C      -41.83130000     -34.22830000     -73.39300000
H      -41.05470000     -34.25410000     -74.24560000
H      -41.27230000     -34.63400000     -72.54200000
S      -44.57890000     -29.93320000     -69.73410000
S      -43.11830000     -35.27210000     -73.99040000
C      -45.50050000     -31.55180000     -69.33690000
H      -44.65500000     -32.21920000     -69.19340000
H      -46.14030000     -31.41410000     -68.41280000
C      -44.08840000     -35.60980000     -72.49140000
H      -43.47390000     -35.63460000     -71.56810000
H      -44.35480000     -36.64560000     -72.49170000
C      -45.33070000     -34.75590000     -72.27840000
H      -45.10800000     -33.75540000     -71.97300000
H      -45.83010000     -34.62540000     -73.30210000
C      -46.46770000     -31.83170000     -70.52020000
H      -45.71370000     -32.03400000     -71.26550000
H      -47.13230000     -30.96510000     -70.73630000
C      -47.37350000     -33.01050000     -70.20960000
C      -48.47690000     -32.74840000     -69.38130000
C      -47.22040000     -34.41570000     -70.47400000
H      -48.82850000     -31.76940000     -69.33210000
C      -48.23210000     -35.19580000     -69.84660000
C      -46.43720000     -35.27770000     -71.28550000
C      -46.79420000     -36.62380000     -71.22080000
S      -49.32910000     -34.21650000     -69.07640000
S      -48.19860000     -36.88460000     -70.31550000
H      -46.25940000     -37.45960000     -71.70320000
