40
Properties=species:S:1:pos:R:3 #=T CELL(abcABC):=T 1.889726e+02=T 90.00000=T Traj:=T positionsangstrom=T Step:=T 0=T Bead:=T pbc="F F F"
C      -42.47500000     -31.85180000     -74.25960000
C      -42.21370000     -32.70090000     -73.19490000
C      -42.33470000     -32.31660000     -71.85630000
C      -42.83910000     -31.03170000     -71.56590000
C      -43.16740000     -30.18150000     -72.63130000
C      -42.93920000     -30.58720000     -73.94190000
H      -42.25760000     -32.20440000     -75.27390000
H      -42.05310000     -33.06370000     -71.05940000
H      -43.63890000     -29.22030000     -72.48770000
H      -43.08500000     -29.93090000     -74.85960000
C      -42.98630000     -30.62160000     -70.13400000
H      -42.27790000     -29.83830000     -69.91150000
H      -42.66140000     -31.37410000     -69.45000000
C      -41.69910000     -34.15470000     -73.39870000
H      -40.83080000     -34.20750000     -74.09670000
H      -41.37530000     -34.52610000     -72.41280000
S      -44.66470000     -29.98090000     -69.65000000
S      -43.06690000     -35.25180000     -74.07450000
C      -45.62000000     -31.59530000     -69.42660000
H      -44.82710000     -32.39510000     -69.27330000
H      -46.10940000     -31.51050000     -68.48200000
C      -44.14180000     -35.57410000     -72.54610000
H      -43.52080000     -35.34290000     -71.71060000
H      -44.51290000     -36.60410000     -72.65720000
C      -45.37820000     -34.56340000     -72.36360000
H      -44.98620000     -33.56890000     -72.12500000
H      -45.80880000     -34.54450000     -73.40880000
C      -46.63410000     -31.85320000     -70.54920000
H      -46.12200000     -31.89780000     -71.55680000
H      -47.09150000     -30.79630000     -70.66650000
C      -47.58710000     -32.96800000     -70.17820000
C      -48.62510000     -32.79660000     -69.35340000
C      -47.26520000     -34.35660000     -70.51000000
H      -48.98520000     -31.79680000     -69.03370000
C      -48.20350000     -35.19300000     -69.95900000
C      -46.34100000     -35.11470000     -71.39200000
C      -46.65430000     -36.45490000     -71.44750000
S      -49.39180000     -34.32710000     -69.01660000
S      -47.86700000     -36.91380000     -70.23680000
H      -46.08720000     -37.15880000     -72.00210000
