40
Properties=species:S:1:pos:R:3 #=T CELL(abcABC):=T 1.889726e+02=T 90.00000=T Traj:=T positionsangstrom=T Step:=T 0=T Bead:=T pbc="F F F"
C      -43.22870000     -32.51580000     -74.80560000
C      -43.66510000     -33.41630000     -73.81860000
C      -43.05480000     -33.26290000     -72.55040000
C      -42.20620000     -32.19710000     -72.26540000
C      -41.82520000     -31.39800000     -73.28900000
C      -42.29220000     -31.54010000     -74.58590000
H      -43.61710000     -32.70130000     -75.77050000
H      -43.40310000     -33.95310000     -71.78320000
H      -41.02020000     -30.67630000     -73.10110000
H      -42.13640000     -30.83050000     -75.40620000
C      -41.85580000     -31.96030000     -70.84700000
H      -41.55910000     -30.88720000     -70.76220000
H      -40.91690000     -32.46800000     -70.58470000
C      -44.80170000     -34.32030000     -74.15150000
H      -44.56470000     -34.68690000     -75.16570000
H      -44.81100000     -35.07390000     -73.33090000
S      -43.07750000     -32.45530000     -69.66640000
S      -46.55800000     -33.63280000     -74.38170000
C      -44.49560000     -31.35250000     -70.02290000
H      -44.19510000     -30.31560000     -70.06610000
H      -44.82670000     -31.56470000     -71.06530000
C      -46.64010000     -32.16030000     -73.23190000
H      -47.02450000     -31.23720000     -73.79320000
H      -45.54880000     -31.89020000     -73.10890000
C      -47.46750000     -32.28490000     -71.98150000
H      -47.06250000     -31.44570000     -71.41030000
H      -48.52250000     -32.05220000     -72.15510000
C      -45.59290000     -31.65110000     -69.06620000
H      -46.48420000     -30.99840000     -69.26400000
H      -45.20690000     -31.34470000     -68.07540000
C      -46.06090000     -33.06380000     -68.95070000
C      -45.72690000     -33.77440000     -67.83120000
C      -46.84020000     -33.82420000     -69.89830000
H      -45.16020000     -33.41740000     -66.91460000
C      -47.07360000     -35.13300000     -69.47360000
C      -47.44040000     -33.57260000     -71.19410000
C      -48.16810000     -34.69830000     -71.65360000
S      -46.47900000     -35.33320000     -67.85050000
S      -48.10850000     -36.03060000     -70.61300000
H      -48.72690000     -34.65250000     -72.71350000
