40
Properties=species:S:1:pos:R:3 #=T CELL(abcABC):=T 1.889726e+02=T 90.00000=T Traj:=T positionsangstrom=T Step:=T 0=T Bead:=T pbc="F F F"
C      -43.44870000     -32.77970000     -74.56520000
C      -44.00500000     -33.56370000     -73.56770000
C      -43.38640000     -33.69660000     -72.31710000
C      -42.35310000     -32.80080000     -72.01000000
C      -41.77880000     -32.01200000     -72.97990000
C      -42.31340000     -31.95460000     -74.25820000
H      -43.93200000     -32.83010000     -75.56630000
H      -43.79790000     -34.27070000     -71.46440000
H      -40.97720000     -31.32460000     -72.74350000
H      -41.78520000     -31.43860000     -75.09050000
C      -41.76780000     -32.60400000     -70.60270000
H      -41.05700000     -31.73040000     -70.68600000
H      -41.26550000     -33.44270000     -70.28810000
C      -45.26860000     -34.36280000     -73.88710000
H      -45.00470000     -35.10760000     -74.60390000
H      -45.62830000     -34.88000000     -73.01970000
S      -43.04490000     -32.26650000     -69.24230000
S      -46.58660000     -33.28850000     -74.54400000
C      -44.28620000     -31.14830000     -70.02230000
H      -44.05670000     -30.10780000     -69.86650000
H      -44.04320000     -31.36260000     -71.06380000
C      -46.81470000     -31.94640000     -73.20190000
H      -47.01760000     -31.10810000     -73.77800000
H      -45.85580000     -31.85380000     -72.67050000
C      -47.98720000     -32.27960000     -72.17220000
H      -48.16050000     -31.44100000     -71.48010000
H      -48.86500000     -32.45830000     -72.81880000
C      -45.72550000     -31.38310000     -69.63330000
H      -46.36140000     -31.08230000     -70.52910000
H      -46.11900000     -30.68060000     -68.77740000
C      -46.03620000     -32.78690000     -69.24590000
C      -45.52290000     -33.51530000     -68.13950000
C      -46.83190000     -33.63810000     -70.15160000
H      -44.91880000     -33.02380000     -67.39070000
C      -46.89560000     -34.97980000     -69.65920000
C      -47.73550000     -33.49200000     -71.31350000
C      -48.37180000     -34.66610000     -71.63960000
S      -45.86910000     -35.23070000     -68.17900000
S      -47.83830000     -36.02680000     -70.64850000
H      -49.12120000     -34.70610000     -72.36830000
