40
Properties=species:S:1:pos:R:3 #=T CELL(abcABC):=T 1.889726e+02=T 90.00000=T Traj:=T positionsangstrom=T Step:=T 0=T Bead:=T pbc="F F F"
C      -43.40630000     -32.89770000     -74.53920000
C      -44.08430000     -33.58760000     -73.50250000
C      -43.58610000     -33.54220000     -72.20400000
C      -42.46900000     -32.79080000     -71.91170000
C      -41.86020000     -32.00650000     -72.91220000
C      -42.28920000     -32.05840000     -74.23290000
H      -43.76430000     -32.93140000     -75.55470000
H      -44.01200000     -34.09270000     -71.45970000
H      -40.91280000     -31.44920000     -72.62810000
H      -41.85010000     -31.50940000     -75.11080000
C      -41.93420000     -32.80720000     -70.54530000
H      -40.96860000     -32.25370000     -70.52500000
H      -41.64500000     -33.77940000     -70.13140000
C      -45.26200000     -34.42700000     -73.82820000
H      -45.03560000     -35.18790000     -74.63410000
H      -45.72410000     -35.01500000     -72.99010000
S      -43.00080000     -32.03640000     -69.24330000
S      -46.59070000     -33.25140000     -74.45850000
C      -44.40450000     -31.21500000     -70.18790000
H      -44.13740000     -30.14670000     -70.47320000
H      -44.50980000     -31.69950000     -71.14660000
C      -46.60670000     -31.97490000     -73.14230000
H      -46.74470000     -30.94140000     -73.61330000
H      -45.58700000     -31.96890000     -72.71260000
C      -47.82840000     -32.23440000     -72.14760000
H      -47.84650000     -31.42160000     -71.43760000
H      -48.83220000     -32.09020000     -72.61520000
C      -45.67140000     -31.31130000     -69.34650000
H      -46.41200000     -30.65350000     -69.66360000
H      -45.37860000     -30.96200000     -68.38230000
C      -46.17460000     -32.75800000     -69.31650000
C      -45.65060000     -33.45520000     -68.22400000
C      -46.83820000     -33.69560000     -70.23700000
H      -45.12980000     -32.96810000     -67.43240000
C      -46.92160000     -34.97680000     -69.72670000
C      -47.63470000     -33.55980000     -71.41960000
C      -48.14310000     -34.77320000     -71.85760000
S      -45.88630000     -35.23420000     -68.28040000
S      -47.79510000     -36.07970000     -70.69320000
H      -48.76480000     -34.98210000     -72.75220000
