40
Properties=species:S:1:pos:R:3 #=T CELL(abcABC):=T 1.889726e+02=T 90.00000=T Traj:=T positionsangstrom=T Step:=T 0=T Bead:=T pbc="F F F"
C      -43.33900000     -32.79620000     -74.45460000
C      -44.24230000     -33.47480000     -73.66340000
C      -43.76660000     -33.67290000     -72.35810000
C      -42.66950000     -33.00080000     -71.82160000
C      -41.83540000     -32.27900000     -72.65750000
C      -42.13330000     -32.17920000     -74.00350000
H      -43.46280000     -32.70160000     -75.54630000
H      -44.43980000     -34.39750000     -71.73910000
H      -41.00220000     -31.79340000     -72.17730000
H      -41.42800000     -31.75820000     -74.69700000
C      -42.51240000     -32.85290000     -70.29330000
H      -41.41600000     -32.99230000     -69.94490000
H      -43.13510000     -33.51220000     -69.73990000
C      -45.42330000     -34.26040000     -74.05050000
H      -45.20520000     -34.89290000     -74.90670000
H      -45.73830000     -34.86540000     -73.21690000
S      -42.91870000     -31.21010000     -69.63490000
S      -46.87920000     -33.10690000     -74.59200000
C      -44.71350000     -30.98360000     -70.04660000
H      -44.85330000     -29.88820000     -70.11310000
H      -45.04840000     -31.47630000     -71.00040000
C      -46.78850000     -31.89890000     -73.16920000
H      -47.12250000     -30.99680000     -73.62320000
H      -45.72860000     -31.73180000     -72.91720000
C      -47.56200000     -32.12020000     -71.87850000
H      -47.38640000     -31.25470000     -71.20890000
H      -48.64370000     -32.13100000     -72.23890000
C      -45.68860000     -31.59210000     -68.96900000
H      -46.63430000     -31.10250000     -69.02740000
H      -45.30130000     -31.38240000     -68.01710000
C      -45.86910000     -33.10260000     -69.07820000
C      -45.39350000     -33.96420000     -68.12820000
C      -46.57040000     -33.81760000     -70.11770000
H      -44.79030000     -33.65270000     -67.28550000
C      -46.63450000     -35.23170000     -69.79280000
C      -47.42640000     -33.48310000     -71.22840000
C      -48.07580000     -34.57230000     -71.68790000
S      -45.79340000     -35.68910000     -68.33100000
S      -47.64130000     -36.10800000     -70.92600000
H      -48.65040000     -34.60790000     -72.56950000
