40
Properties=species:S:1:pos:R:3 #=T CELL(abcABC):=T 1.889726e+02=T 90.00000=T Traj:=T positionsangstrom=T Step:=T 0=T Bead:=T pbc="F F F"
C      -43.41660000     -32.68690000     -74.60160000
C      -44.29800000     -33.33630000     -73.74760000
C      -44.01510000     -33.32370000     -72.35940000
C      -42.81120000     -32.85570000     -71.87890000
C      -41.83900000     -32.28620000     -72.82320000
C      -42.18210000     -32.15810000     -74.14920000
H      -43.67610000     -32.60350000     -75.69220000
H      -44.62460000     -33.74730000     -71.66640000
H      -40.88990000     -31.90240000     -72.47600000
H      -41.54970000     -31.72270000     -74.94890000
C      -42.57670000     -32.88340000     -70.38750000
H      -41.54550000     -32.84790000     -70.06400000
H      -43.05200000     -33.70600000     -69.87540000
C      -45.59590000     -34.00270000     -74.28430000
H      -45.45590000     -34.37710000     -75.23070000
H      -45.95530000     -34.79480000     -73.62560000
S      -42.99780000     -31.34190000     -69.47490000
S      -46.95060000     -32.68600000     -74.43700000
C      -44.81220000     -31.02550000     -69.75040000
H      -44.83880000     -29.93380000     -69.46020000
H      -45.01300000     -31.16190000     -70.81160000
C      -46.87820000     -31.81230000     -72.86320000
H      -47.02500000     -30.78080000     -73.05950000
H      -45.81580000     -31.90350000     -72.42380000
C      -47.93600000     -32.33960000     -71.83390000
H      -48.05720000     -31.61840000     -71.03320000
H      -48.89470000     -32.45940000     -72.29540000
C      -45.88790000     -31.67540000     -68.81970000
H      -46.92030000     -31.22880000     -69.07740000
H      -45.64410000     -31.41860000     -67.76520000
C      -45.95090000     -33.19560000     -68.88600000
C      -45.36490000     -34.08730000     -68.02300000
C      -46.63360000     -33.93560000     -69.96440000
H      -44.73890000     -33.93310000     -67.14880000
C      -46.50890000     -35.32040000     -69.83360000
C      -47.42870000     -33.66770000     -71.20490000
C      -47.77570000     -34.82050000     -71.86050000
S      -45.49230000     -35.80660000     -68.53180000
S      -47.25140000     -36.23190000     -71.10400000
H      -48.38010000     -34.96020000     -72.80570000
