40
Properties=species:S:1:pos:R:3 #=T CELL(abcABC):=T 1.889726e+02=T 90.00000=T Traj:=T positionsangstrom=T Step:=T 0=T Bead:=T pbc="F F F"
C      -43.49930000     -32.35270000     -74.54000000
C      -44.40800000     -33.16630000     -73.79790000
C      -44.07430000     -33.43030000     -72.45330000
C      -42.89150000     -32.81430000     -71.88300000
C      -42.00620000     -32.08080000     -72.65430000
C      -42.37000000     -31.82140000     -74.02310000
H      -43.74620000     -32.36840000     -75.57530000
H      -44.72660000     -34.07890000     -71.82110000
H      -41.01560000     -31.79830000     -72.30720000
H      -41.71720000     -31.23150000     -74.63640000
C      -42.57470000     -32.98680000     -70.38580000
H      -41.52830000     -33.12680000     -70.23660000
H      -43.04360000     -33.93840000     -70.08750000
C      -45.61800000     -33.84200000     -74.32230000
H      -45.42870000     -34.17710000     -75.37140000
H      -45.85900000     -34.71170000     -73.84040000
S      -43.10480000     -31.53380000     -69.44820000
S      -47.02560000     -32.64870000     -74.39200000
C      -44.85700000     -31.08880000     -69.85860000
H      -44.90100000     -30.04100000     -69.91740000
H      -45.07870000     -31.47660000     -70.87680000
C      -47.13630000     -31.81180000     -72.79080000
H      -47.53300000     -30.77270000     -72.97420000
H      -46.15920000     -31.67710000     -72.38220000
C      -48.04630000     -32.50040000     -71.67710000
H      -48.03610000     -31.88270000     -70.80820000
H      -49.06560000     -32.71890000     -71.92930000
C      -45.87080000     -31.71010000     -68.82580000
H      -46.80300000     -31.37240000     -69.19420000
H      -45.75520000     -31.39630000     -67.78620000
C      -45.95200000     -33.18030000     -68.99690000
C      -45.43160000     -34.00890000     -67.97590000
C      -46.47910000     -33.97640000     -70.15020000
H      -44.93500000     -33.63980000     -66.98980000
C      -46.10170000     -35.29500000     -70.02060000
C      -47.37030000     -33.79760000     -71.24940000
C      -47.69040000     -34.97780000     -71.87080000
S      -45.37380000     -35.74580000     -68.49950000
S      -46.95830000     -36.34160000     -71.13510000
H      -48.49360000     -35.02500000     -72.60790000
