40
Properties=species:S:1:pos:R:3 #=T CELL(abcABC):=T 1.889726e+02=T 90.00000=T Traj:=T positionsangstrom=T Step:=T 0=T Bead:=T pbc="F F F"
C      -43.63670000     -32.25770000     -74.54230000
C      -44.34190000     -33.23720000     -73.86740000
C      -44.03490000     -33.45930000     -72.49580000
C      -43.02340000     -32.72540000     -71.90430000
C      -42.21430000     -31.80440000     -72.64960000
C      -42.53100000     -31.66820000     -73.95140000
H      -43.90600000     -32.10360000     -75.61220000
H      -44.67790000     -34.18620000     -71.95270000
H      -41.46330000     -31.23770000     -72.08630000
H      -41.93260000     -30.88050000     -74.46400000
C      -42.72720000     -33.01990000     -70.48020000
H      -41.68900000     -33.18460000     -70.34280000
H      -43.32940000     -33.82080000     -69.97950000
C      -45.59020000     -33.87890000     -74.43800000
H      -45.35490000     -34.11330000     -75.54710000
H      -45.89740000     -34.75520000     -73.80820000
S      -43.05840000     -31.60650000     -69.21600000
S      -47.08310000     -32.65180000     -74.51670000
C      -44.68810000     -31.01330000     -69.71680000
H      -44.77480000     -29.96910000     -69.37270000
H      -44.85470000     -31.09210000     -70.86640000
C      -46.90240000     -31.84520000     -72.83430000
H      -47.30690000     -30.84200000     -72.97770000
H      -45.83460000     -31.80340000     -72.49200000
C      -47.85540000     -32.50960000     -71.77130000
H      -48.03990000     -31.82960000     -70.92480000
H      -48.83530000     -32.46940000     -72.29000000
C      -45.91860000     -31.70910000     -69.06600000
H      -46.75320000     -31.34690000     -69.65310000
H      -46.08100000     -31.32290000     -68.01230000
C      -45.92960000     -33.21400000     -69.14150000
C      -45.17630000     -33.97260000     -68.20300000
C      -46.60940000     -34.05500000     -70.05530000
H      -44.64900000     -33.35840000     -67.38500000
C      -46.43060000     -35.41650000     -69.72000000
C      -47.43720000     -33.85240000     -71.20580000
C      -47.70450000     -35.02800000     -71.87330000
S      -45.23510000     -35.72460000     -68.45960000
S      -46.95290000     -36.41660000     -71.07980000
H      -48.21680000     -35.08080000     -72.77640000
