40
Properties=species:S:1:pos:R:3 #=T CELL(abcABC):=T 1.889726e+02=T 90.00000=T Traj:=T positionsangstrom=T Step:=T 0=T Bead:=T pbc="F F F"
C      -44.43000000     -35.75540000     -74.63860000
C      -45.62980000     -35.60330000     -73.93010000
C      -45.68920000     -36.25750000     -72.63590000
C      -44.63390000     -36.85580000     -71.99500000
C      -43.40760000     -36.92970000     -72.72390000
C      -43.37560000     -36.47870000     -74.02210000
H      -44.31020000     -35.68410000     -75.70370000
H      -46.58430000     -35.96550000     -72.06430000
H      -42.63640000     -37.42790000     -72.10790000
H      -42.43670000     -36.63620000     -74.55520000
C      -44.69430000     -37.33890000     -70.60640000
H      -43.81470000     -37.11750000     -70.00670000
H      -44.79070000     -38.45510000     -70.65450000
C      -46.76820000     -34.81960000     -74.44220000
H      -47.25150000     -35.35570000     -75.30370000
H      -47.55680000     -34.84620000     -73.66940000
S      -46.12890000     -36.64370000     -69.52840000
S      -46.38070000     -33.11460000     -75.00140000
C      -45.50070000     -34.94040000     -69.15920000
H      -45.33230000     -34.72050000     -68.12210000
H      -44.55190000     -34.92290000     -69.68970000
C      -46.24110000     -32.12520000     -73.43280000
H      -47.02090000     -32.37980000     -72.67690000
H      -46.39500000     -31.11180000     -73.74240000
C      -44.92760000     -32.35640000     -72.57800000
H      -44.93050000     -33.44430000     -72.24560000
H      -44.11280000     -32.28420000     -73.25760000
C      -46.38100000     -33.80870000     -69.64780000
H      -47.39130000     -33.93850000     -69.27590000
H      -46.49840000     -33.83280000     -70.73020000
C      -45.91930000     -32.45240000     -69.18560000
C      -46.17470000     -31.99860000     -67.93050000
C      -45.17690000     -31.47290000     -70.05150000
H      -46.72700000     -32.53290000     -67.10810000
C      -44.99580000     -30.28480000     -69.38260000
C      -44.77310000     -31.32770000     -71.44670000
C      -44.24770000     -30.09570000     -71.74880000
S      -45.56810000     -30.35240000     -67.68630000
S      -44.09190000     -29.04530000     -70.34600000
H      -43.78600000     -29.72040000     -72.66240000
