40
Properties=species:S:1:pos:R:3 #=T CELL(abcABC):=T 1.889726e+02=T 90.00000=T Traj:=T positionsangstrom=T Step:=T 0=T Bead:=T pbc="F F F"
C      -44.38820000     -35.67700000     -74.54310000
C      -45.61500000     -35.47250000     -73.85620000
C      -45.79260000     -36.07200000     -72.60890000
C      -44.69650000     -36.76650000     -71.98070000
C      -43.56310000     -36.93800000     -72.72160000
C      -43.38380000     -36.50690000     -74.03810000
H      -44.28620000     -35.09950000     -75.49070000
H      -46.69380000     -36.03600000     -71.99780000
H      -42.77890000     -37.50120000     -72.31810000
H      -42.45440000     -36.62770000     -74.61530000
C      -44.79040000     -37.41050000     -70.57730000
H      -43.73500000     -37.35680000     -70.17600000
H      -44.99020000     -38.48140000     -70.59440000
C      -46.76530000     -34.78680000     -74.60270000
H      -46.86130000     -35.21290000     -75.58510000
H      -47.70510000     -34.70280000     -74.09390000
S      -45.84830000     -36.62540000     -69.38570000
S      -46.14470000     -33.10500000     -75.08020000
C      -45.28380000     -34.94420000     -68.94520000
H      -45.32290000     -34.90080000     -67.84800000
H      -44.23230000     -34.83860000     -69.24110000
C      -46.17510000     -32.27470000     -73.35140000
H      -47.23550000     -32.51290000     -72.97970000
H      -46.18270000     -31.20960000     -73.59810000
C      -44.85920000     -32.55510000     -72.47280000
H      -44.91160000     -33.53650000     -72.02260000
H      -43.98150000     -32.52240000     -73.08000000
C      -46.18460000     -33.88300000     -69.61840000
H      -47.24930000     -34.20980000     -69.44060000
H      -46.13480000     -33.97970000     -70.72550000
C      -45.85130000     -32.54660000     -69.18520000
C      -46.09660000     -32.00450000     -67.92470000
C      -45.40560000     -31.45530000     -70.13270000
H      -46.55430000     -32.56060000     -67.08140000
C      -45.30500000     -30.22210000     -69.47700000
C      -44.74690000     -31.43680000     -71.45910000
C      -44.21290000     -30.16920000     -71.74320000
S      -45.66210000     -30.32970000     -67.78340000
S      -44.49490000     -28.98920000     -70.43490000
H      -43.65490000     -29.86030000     -72.61260000
