40
Properties=species:S:1:pos:R:3 #=T CELL(abcABC):=T 1.889726e+02=T 90.00000=T Traj:=T positionsangstrom=T Step:=T 0=T Bead:=T pbc="F F F"
C      -44.47420000     -35.79930000     -74.59480000
C      -45.59330000     -35.55270000     -73.87900000
C      -45.69200000     -36.02730000     -72.53070000
C      -44.61060000     -36.71290000     -71.91650000
C      -43.44660000     -36.81210000     -72.63130000
C      -43.39880000     -36.48710000     -73.97530000
H      -44.34620000     -35.51570000     -75.65960000
H      -46.67000000     -35.99860000     -72.07020000
H      -42.47630000     -37.16040000     -72.23500000
H      -42.56150000     -36.85060000     -74.54310000
C      -44.60450000     -37.44210000     -70.52870000
H      -43.54040000     -37.39560000     -70.22950000
H      -44.98640000     -38.45250000     -70.62790000
C      -46.69320000     -34.78710000     -74.40470000
H      -47.25100000     -35.19810000     -75.24520000
H      -47.50780000     -34.69180000     -73.60090000
S      -45.77780000     -36.80120000     -69.22090000
S      -46.07560000     -33.13550000     -74.99570000
C      -45.12430000     -35.04610000     -69.09240000
H      -44.86870000     -34.86250000     -68.03520000
H      -44.20960000     -35.01720000     -69.62250000
C      -46.04760000     -32.09810000     -73.47870000
H      -46.92440000     -32.35860000     -72.90110000
H      -46.14590000     -31.02530000     -73.65640000
C      -44.81460000     -32.43470000     -72.60420000
H      -44.84310000     -33.42160000     -72.17480000
H      -43.90170000     -32.46100000     -73.29130000
C      -46.15590000     -33.91550000     -69.56620000
H      -47.11210000     -34.12400000     -69.11630000
H      -46.24650000     -33.94610000     -70.66200000
C      -45.80920000     -32.50830000     -69.25530000
C      -46.18220000     -31.99710000     -68.01360000
C      -45.21690000     -31.55220000     -70.12190000
H      -46.50080000     -32.57860000     -67.17640000
C      -45.15840000     -30.31790000     -69.46210000
C      -44.81090000     -31.41170000     -71.47160000
C      -44.60850000     -30.07290000     -71.84060000
S      -45.82880000     -30.21390000     -67.90180000
S      -44.73930000     -28.96680000     -70.51380000
H      -44.27070000     -29.67180000     -72.76110000
