40
Properties=species:S:1:pos:R:3 #=T CELL(abcABC):=T 1.889726e+02=T 90.00000=T Traj:=T positionsangstrom=T Step:=T 0=T Bead:=T pbc="F F F"
C      -43.77990000     -31.03100000     -74.38890000
C      -44.38730000     -32.21880000     -73.99150000
C      -44.06990000     -32.84170000     -72.81260000
C      -43.11230000     -32.23060000     -71.93160000
C      -42.50900000     -31.03430000     -72.32150000
C      -42.83910000     -30.48770000     -73.54400000
H      -44.12940000     -30.63510000     -75.37820000
H      -44.64880000     -33.67300000     -72.36430000
H      -41.64010000     -30.52530000     -71.82420000
H      -42.46690000     -29.50050000     -73.62390000
C      -42.98190000     -32.78620000     -70.49690000
H      -41.98980000     -33.20810000     -70.37620000
H      -43.72990000     -33.60000000     -70.36200000
C      -45.50740000     -32.86370000     -74.75220000
H      -45.58850000     -32.66250000     -75.84510000
H      -45.43140000     -33.94980000     -74.68890000
S      -43.46080000     -31.56250000     -69.11250000
S      -47.17830000     -32.42600000     -74.14700000
C      -45.27620000     -31.37590000     -69.21870000
H      -45.42700000     -30.35990000     -68.79730000
H      -45.50490000     -31.37970000     -70.28620000
C      -47.02480000     -31.96480000     -72.40890000
H      -47.38390000     -30.94470000     -72.18200000
H      -46.03330000     -32.00900000     -71.96980000
C      -47.87770000     -32.82150000     -71.40040000
H      -47.81440000     -32.32740000     -70.43010000
H      -48.88100000     -32.72530000     -71.82430000
C      -46.03720000     -32.50000000     -68.42520000
H      -47.17230000     -32.33310000     -68.39060000
H      -45.74090000     -32.46130000     -67.39210000
C      -45.76950000     -33.93990000     -68.97090000
C      -44.90600000     -34.78410000     -68.27480000
C      -46.34260000     -34.65290000     -70.14840000
H      -44.18930000     -34.50290000     -67.47950000
C      -45.95210000     -35.92480000     -70.27760000
C      -47.35090000     -34.21420000     -71.20750000
C      -47.60750000     -35.26500000     -72.05210000
S      -44.67780000     -36.37440000     -69.05410000
S      -46.72050000     -36.72510000     -71.58060000
H      -48.21210000     -35.30020000     -72.94060000
