40
Properties=species:S:1:pos:R:3 #=T CELL(abcABC):=T 1.889726e+02=T 90.00000=T Traj:=T positionsangstrom=T Step:=T 0=T Bead:=T pbc="F F F"
C      -43.76070000     -31.07910000     -74.25060000
C      -44.53050000     -32.17990000     -73.66140000
C      -44.13260000     -32.63440000     -72.41490000
C      -43.01420000     -32.17710000     -71.71790000
C      -42.28950000     -31.06960000     -72.29070000
C      -42.67170000     -30.48400000     -73.50300000
H      -44.11790000     -30.55750000     -75.16620000
H      -44.63050000     -33.49410000     -71.94290000
H      -41.49250000     -30.55820000     -71.83440000
H      -42.16250000     -29.57180000     -73.84760000
C      -42.73720000     -32.78370000     -70.33250000
H      -41.66070000     -32.77220000     -70.12950000
H      -43.16630000     -33.74390000     -70.10690000
C      -45.53540000     -32.92990000     -74.41850000
H      -45.29400000     -32.84290000     -75.47380000
H      -45.33410000     -33.97240000     -74.26130000
S      -43.33850000     -31.68660000     -68.96140000
S      -47.33270000     -32.55630000     -74.16500000
C      -45.15830000     -31.53210000     -69.30310000
H      -45.58180000     -30.47380000     -69.15040000
H      -45.24560000     -31.70550000     -70.43660000
C      -47.60300000     -31.82720000     -72.47710000
H      -48.35640000     -31.09190000     -72.61010000
H      -46.65570000     -31.37000000     -72.20550000
C      -48.09080000     -32.86870000     -71.41500000
H      -47.98050000     -32.37570000     -70.43520000
H      -49.17250000     -33.01820000     -71.50300000
C      -45.98880000     -32.52620000     -68.54820000
H      -47.08940000     -32.29190000     -68.59510000
H      -45.77520000     -32.33470000     -67.51830000
C      -45.80840000     -33.97090000     -68.99920000
C      -44.80890000     -34.78030000     -68.39080000
C      -46.40630000     -34.53080000     -70.23500000
H      -44.33940000     -34.66880000     -67.46980000
C      -45.83720000     -35.83450000     -70.49490000
C      -47.34640000     -34.15770000     -71.26350000
C      -47.70420000     -35.25190000     -72.09780000
S      -44.65100000     -36.36020000     -69.25950000
S      -46.66480000     -36.60580000     -71.82840000
H      -48.42780000     -35.21420000     -72.93420000
