40
Properties=species:S:1:pos:R:3 #=T CELL(abcABC):=T 1.889726e+02=T 90.00000=T Traj:=T positionsangstrom=T Step:=T 0=T Bead:=T pbc="F F F"
C      -44.10370000     -35.76410000     -74.15320000
C      -45.37660000     -35.94340000     -73.60160000
C      -45.44780000     -36.57540000     -72.36400000
C      -44.34440000     -36.86140000     -71.57770000
C      -43.05150000     -36.44110000     -72.09880000
C      -42.90960000     -36.04590000     -73.40210000
H      -44.09820000     -35.35070000     -75.18870000
H      -46.39160000     -36.83860000     -71.95550000
H      -42.19560000     -36.80510000     -71.49020000
H      -41.92030000     -35.85140000     -73.80730000
C      -44.30280000     -37.37160000     -70.16360000
H      -43.21070000     -37.56470000     -69.93980000
H      -44.84930000     -38.40490000     -70.13980000
C      -46.66400000     -35.60010000     -74.37680000
H      -46.76350000     -36.10540000     -75.33390000
H      -47.58240000     -35.78630000     -73.81420000
S      -45.27650000     -36.46890000     -68.85690000
S      -46.66650000     -33.82370000     -74.93670000
C      -44.77680000     -34.74510000     -69.26710000
H      -44.28850000     -34.45230000     -68.38380000
H      -43.94810000     -34.85200000     -70.04630000
C      -46.64210000     -32.75670000     -73.44340000
H      -47.21160000     -33.35550000     -72.66280000
H      -47.29920000     -31.89880000     -73.73160000
C      -45.27800000     -32.19960000     -72.97000000
H      -44.64790000     -33.03200000     -72.68610000
H      -44.67360000     -31.87360000     -73.78580000
C      -45.84160000     -33.79790000     -69.79900000
H      -46.86750000     -34.07480000     -69.50090000
H      -45.90800000     -33.95400000     -70.93140000
C      -45.63800000     -32.41570000     -69.42820000
C      -45.61720000     -31.93280000     -68.19070000
C      -45.56580000     -31.29190000     -70.40060000
H      -45.77450000     -32.32630000     -67.19150000
C      -45.47660000     -30.05560000     -69.79860000
C      -45.36820000     -31.19450000     -71.86680000
C      -45.09570000     -29.90420000     -72.21460000
S      -45.63530000     -30.12820000     -68.09660000
S      -45.25580000     -28.68430000     -70.83080000
H      -44.82480000     -29.53010000     -73.18770000
