40
Properties=species:S:1:pos:R:3 #=T CELL(abcABC):=T 1.889726e+02=T 90.00000=T Traj:=T positionsangstrom=T Step:=T 0=T Bead:=T pbc="F F F"
C      -44.04510000     -35.67210000     -74.09300000
C      -45.33450000     -35.91750000     -73.59540000
C      -45.38400000     -36.52300000     -72.34740000
C      -44.21650000     -36.84120000     -71.61610000
C      -42.96430000     -36.40960000     -72.01020000
C      -42.89770000     -35.83130000     -73.30070000
H      -43.98730000     -35.42740000     -75.16310000
H      -46.31470000     -36.80740000     -71.90010000
H      -42.14250000     -36.40600000     -71.24210000
H      -41.99280000     -35.42530000     -73.60800000
C      -44.35550000     -37.59210000     -70.32230000
H      -43.41810000     -37.88820000     -70.02690000
H      -45.02290000     -38.38270000     -70.36530000
C      -46.57370000     -35.69630000     -74.34520000
H      -46.60890000     -36.21540000     -75.31440000
H      -47.39150000     -36.05170000     -73.69720000
S      -45.14930000     -36.51430000     -68.94560000
S      -46.83300000     -33.91890000     -74.76500000
C      -44.57400000     -34.77420000     -69.05770000
H      -44.40340000     -34.40330000     -68.05860000
H      -43.64130000     -34.68520000     -69.57610000
C      -46.86780000     -32.86900000     -73.17270000
H      -47.35620000     -33.34790000     -72.41750000
H      -47.44970000     -31.97670000     -73.46180000
C      -45.40690000     -32.37530000     -72.82720000
H      -44.73420000     -33.15040000     -72.33200000
H      -44.89240000     -32.15820000     -73.86490000
C      -45.66240000     -33.83810000     -69.63880000
H      -46.52910000     -34.13200000     -69.09270000
H      -45.79460000     -34.10710000     -70.66730000
C      -45.61240000     -32.34790000     -69.45710000
C      -45.78200000     -31.82940000     -68.21280000
C      -45.63310000     -31.25050000     -70.45950000
H      -45.71210000     -32.21410000     -67.22700000
C      -45.38580000     -29.95940000     -69.89770000
C      -45.49160000     -31.18480000     -71.91790000
C      -45.26300000     -29.89280000     -72.35430000
S      -45.58730000     -30.04770000     -68.16000000
S      -45.28420000     -28.65150000     -71.11260000
H      -45.03110000     -29.50750000     -73.26370000
