40
Properties=species:S:1:pos:R:3 #=T CELL(abcABC):=T 1.889726e+02=T 90.00000=T Traj:=T positionsangstrom=T Step:=T 0=T Bead:=T pbc="F F F"
C      -44.00050000     -30.67090000     -73.80770000
C      -44.51120000     -31.94620000     -73.47900000
C      -44.09200000     -32.57710000     -72.28830000
C      -43.12430000     -31.95160000     -71.51720000
C      -42.57700000     -30.72160000     -71.86590000
C      -42.97020000     -30.11180000     -73.06310000
H      -44.51260000     -30.14930000     -74.61880000
H      -44.59530000     -33.54700000     -71.96840000
H      -41.79740000     -30.40930000     -71.19990000
H      -42.64200000     -29.09880000     -73.36120000
C      -42.60680000     -32.64320000     -70.30910000
H      -41.52010000     -32.58600000     -70.17170000
H      -42.78290000     -33.72570000     -70.39680000
C      -45.50800000     -32.73320000     -74.37270000
H      -45.30010000     -32.42750000     -75.35090000
H      -45.24180000     -33.78160000     -74.13680000
S      -43.17200000     -31.78290000     -68.77200000
S      -47.36170000     -32.40950000     -74.24350000
C      -44.99830000     -31.52870000     -69.15890000
H      -45.22690000     -30.68190000     -68.49300000
H      -45.00030000     -31.14670000     -70.18890000
C      -47.63080000     -32.03830000     -72.41590000
H      -48.33590000     -31.24790000     -72.25800000
H      -46.70410000     -31.69540000     -72.02440000
C      -48.39710000     -33.24360000     -71.68610000
H      -48.93930000     -32.98300000     -70.77640000
H      -49.19720000     -33.55950000     -72.35790000
C      -46.14440000     -32.58560000     -68.90560000
H      -47.10770000     -32.28330000     -69.28980000
H      -46.15730000     -32.72220000     -67.80460000
C      -45.80670000     -33.96660000     -69.34410000
C      -44.85690000     -34.73460000     -68.66430000
C      -46.34320000     -34.55850000     -70.49480000
H      -44.34810000     -34.50090000     -67.71910000
C      -45.77890000     -35.86530000     -70.64810000
C      -47.46130000     -34.45770000     -71.41970000
C      -47.56420000     -35.65810000     -72.16900000
S      -44.69720000     -36.34740000     -69.44820000
S      -46.36490000     -36.89420000     -71.84380000
H      -48.22800000     -35.79930000     -72.97840000
