40
Properties=species:S:1:pos:R:3 #=T CELL(abcABC):=T 1.889726e+02=T 90.00000=T Traj:=T positionsangstrom=T Step:=T 0=T Bead:=T pbc="F F F"
C      -43.93850000     -30.32780000     -73.86030000
C      -44.36000000     -31.63550000     -73.70270000
C      -43.93330000     -32.36120000     -72.57260000
C      -43.17290000     -31.70760000     -71.56280000
C      -42.71390000     -30.40570000     -71.78410000
C      -43.13990000     -29.69710000     -72.90510000
H      -44.20610000     -29.72830000     -74.76270000
H      -44.28380000     -33.30970000     -72.31160000
H      -42.08720000     -29.90030000     -71.04260000
H      -42.73770000     -28.69690000     -73.09620000
C      -42.82410000     -32.48780000     -70.36270000
H      -41.73250000     -32.46040000     -70.15280000
H      -43.10390000     -33.55870000     -70.47650000
C      -45.33000000     -32.18540000     -74.67660000
H      -45.26940000     -31.51150000     -75.62170000
H      -44.97450000     -33.17880000     -75.05320000
S      -43.54280000     -32.07030000     -68.79790000
S      -47.11640000     -32.42770000     -74.16410000
C      -45.33620000     -31.70930000     -69.14220000
H      -45.57260000     -30.79680000     -68.65320000
H      -45.54850000     -31.48790000     -70.17840000
C      -47.19510000     -32.11520000     -72.32860000
H      -47.55400000     -31.11390000     -72.18540000
H      -46.22740000     -32.13820000     -71.88080000
C      -48.06330000     -33.15040000     -71.56070000
H      -48.25700000     -32.76260000     -70.55310000
H      -49.00300000     -33.43110000     -72.00100000
C      -46.06220000     -32.84250000     -68.49180000
H      -47.11800000     -32.63050000     -68.52850000
H      -45.75540000     -32.86390000     -67.44530000
C      -45.81030000     -34.20140000     -69.12380000
C      -44.89590000     -35.04110000     -68.51960000
C      -46.39780000     -34.89110000     -70.34320000
H      -44.34200000     -34.83390000     -67.64930000
C      -45.83490000     -36.10520000     -70.59750000
C      -47.30210000     -34.43010000     -71.37270000
C      -47.47980000     -35.40550000     -72.31730000
S      -44.66500000     -36.62910000     -69.38770000
S      -46.54050000     -36.87490000     -72.11210000
H      -48.23320000     -35.27750000     -73.18320000
