40
Properties=species:S:1:pos:R:3 #=T CELL(abcABC):=T 1.889726e+02=T 90.00000=T Traj:=T positionsangstrom=T Step:=T 0=T Bead:=T pbc="F F F"
C      -44.16390000     -30.01090000     -73.62640000
C      -44.53590000     -31.38010000     -73.73800000
C      -44.16130000     -32.26190000     -72.67870000
C      -43.38500000     -31.83720000     -71.64210000
C      -43.12140000     -30.44920000     -71.57500000
C      -43.42420000     -29.53810000     -72.55560000
H      -44.29220000     -29.28090000     -74.40450000
H      -44.33240000     -33.35200000     -72.80750000
H      -42.49590000     -30.09230000     -70.73690000
H      -43.20630000     -28.48400000     -72.46580000
C      -43.05600000     -32.70630000     -70.41060000
H      -41.94980000     -32.81980000     -70.34120000
H      -43.45260000     -33.72280000     -70.47370000
C      -45.36890000     -31.97210000     -74.79890000
H      -45.59230000     -31.32480000     -75.64640000
H      -44.92300000     -32.90720000     -75.22210000
S      -43.66710000     -31.90570000     -68.80180000
S      -47.11260000     -32.55520000     -74.20560000
C      -45.49430000     -31.90960000     -68.97980000
H      -45.77130000     -30.95300000     -68.58010000
H      -45.73180000     -31.84610000     -70.00990000
C      -47.33340000     -31.98150000     -72.47270000
H      -48.15570000     -31.23130000     -72.43230000
H      -46.46320000     -31.41400000     -72.20310000
C      -47.76820000     -33.11700000     -71.49440000
H      -47.72930000     -32.70880000     -70.44430000
H      -48.86310000     -33.39400000     -71.53990000
C      -46.14300000     -33.16070000     -68.26830000
H      -47.26980000     -33.11480000     -68.25720000
H      -45.84450000     -33.28250000     -67.20130000
C      -45.68830000     -34.37510000     -69.06890000
C      -44.79270000     -35.28250000     -68.50790000
C      -46.14760000     -34.84320000     -70.38550000
H      -44.34130000     -35.11500000     -67.52050000
C      -45.62960000     -36.12430000     -70.69350000
C      -47.01120000     -34.38390000     -71.48030000
C      -47.04360000     -35.28170000     -72.58930000
S      -44.70960000     -36.81240000     -69.32610000
S      -46.13390000     -36.74350000     -72.25460000
H      -47.57710000     -35.17620000     -73.55040000
