40
Properties=species:S:1:pos:R:3 #=T CELL(abcABC):=T 1.889726e+02=T 90.00000=T Traj:=T positionsangstrom=T Step:=T 0=T Bead:=T pbc="F F F"
C      -44.36920000     -29.97420000     -73.59780000
C      -44.74800000     -31.34520000     -73.58480000
C      -44.28030000     -32.16110000     -72.55840000
C      -43.51410000     -31.67350000     -71.51440000
C      -43.18530000     -30.28610000     -71.55030000
C      -43.62070000     -29.46540000     -72.55510000
H      -44.69310000     -29.33080000     -74.34830000
H      -44.80850000     -33.06990000     -72.38890000
H      -42.68710000     -29.76940000     -70.72650000
H      -43.42750000     -28.35820000     -72.60690000
C      -43.04740000     -32.57970000     -70.35620000
H      -41.96280000     -32.61080000     -70.33290000
H      -43.46840000     -33.59950000     -70.49390000
C      -45.57090000     -31.81700000     -74.73280000
H      -45.70990000     -30.94290000     -75.41710000
H      -44.90650000     -32.47900000     -75.24440000
S      -43.55430000     -31.93460000     -68.62560000
S      -47.19610000     -32.58310000     -74.34350000
C      -45.38110000     -31.95130000     -68.83880000
H      -45.81680000     -31.05260000     -68.29060000
H      -45.58690000     -31.73170000     -69.85350000
C      -47.49220000     -32.08330000     -72.60480000
H      -48.33590000     -31.37340000     -72.60110000
H      -46.59780000     -31.50370000     -72.31410000
C      -47.64920000     -33.21480000     -71.48190000
H      -47.46460000     -32.78050000     -70.52890000
H      -48.71770000     -33.40940000     -71.59660000
C      -46.19900000     -33.20320000     -68.40450000
H      -47.20610000     -33.09630000     -68.68170000
H      -46.19300000     -33.22370000     -67.31520000
C      -45.72440000     -34.47720000     -69.03420000
C      -45.04720000     -35.48630000     -68.37780000
C      -45.97630000     -34.86720000     -70.45950000
H      -44.70620000     -35.48740000     -67.34980000
C      -45.36600000     -36.07960000     -70.80520000
C      -46.80960000     -34.44660000     -71.54000000
C      -46.77930000     -35.24070000     -72.70360000
S      -44.63060000     -36.87110000     -69.42650000
S      -46.00020000     -36.76160000     -72.30070000
H      -47.54110000     -35.28230000     -73.47070000
