40
Properties=species:S:1:pos:R:3 #=T CELL(abcABC):=T 1.889726e+02=T 90.00000=T Traj:=T positionsangstrom=T Step:=T 0=T Bead:=T pbc="F F F"
C      -44.41030000     -29.90640000     -73.54650000
C      -44.84890000     -31.23890000     -73.47050000
C      -44.37530000     -32.01120000     -72.42650000
C      -43.52740000     -31.50760000     -71.43390000
C      -43.29300000     -30.14550000     -71.41760000
C      -43.71610000     -29.33310000     -72.44930000
H      -44.73950000     -29.28060000     -74.38020000
H      -44.41330000     -33.09140000     -72.56740000
H      -42.82230000     -29.67150000     -70.59400000
H      -43.47850000     -28.22610000     -72.42150000
C      -43.08680000     -32.51660000     -70.38090000
H      -42.03770000     -32.82930000     -70.44830000
H      -43.64890000     -33.43600000     -70.67540000
C      -45.54290000     -31.84640000     -74.62420000
H      -45.69910000     -31.05360000     -75.38310000
H      -44.92850000     -32.65900000     -75.06420000
S      -43.55350000     -32.07220000     -68.70230000
S      -47.16540000     -32.61510000     -74.33080000
C      -45.40220000     -31.86880000     -68.81830000
H      -45.64510000     -31.06550000     -68.09090000
H      -45.57930000     -31.49600000     -69.83650000
C      -47.69870000     -32.18550000     -72.67920000
H      -48.65170000     -31.62390000     -72.79540000
H      -46.94920000     -31.48380000     -72.29120000
C      -47.97340000     -33.33600000     -71.68490000
H      -48.19060000     -32.94840000     -70.70040000
H      -48.85840000     -33.91700000     -71.94930000
C      -46.07670000     -33.18720000     -68.40730000
H      -47.17930000     -33.04040000     -68.61260000
H      -45.90810000     -33.33310000     -67.32410000
C      -45.69950000     -34.49880000     -69.02770000
C      -44.95140000     -35.48190000     -68.40700000
C      -46.08630000     -34.95710000     -70.43570000
H      -44.52260000     -35.45610000     -67.42910000
C      -45.50460000     -36.18200000     -70.72320000
C      -46.93900000     -34.52020000     -71.59860000
C      -46.74740000     -35.31970000     -72.68790000
S      -44.60230000     -36.90730000     -69.41930000
S      -45.62100000     -36.64790000     -72.40290000
H      -47.21050000     -35.24780000     -73.67020000
