40
Properties=species:S:1:pos:R:3 #=T CELL(abcABC):=T 1.889726e+02=T 90.00000=T Traj:=T positionsangstrom=T Step:=T 0=T Bead:=T pbc="F F F"
C      -44.64780000     -29.85920000     -73.37830000
C      -44.87340000     -31.21640000     -73.54450000
C      -44.25180000     -32.10420000     -72.64870000
C      -43.51570000     -31.62880000     -71.52720000
C      -43.34980000     -30.26780000     -71.37250000
C      -43.87540000     -29.35420000     -72.28590000
H      -45.11210000     -29.16020000     -74.16270000
H      -44.59050000     -33.15290000     -72.74570000
H      -42.71970000     -29.89180000     -70.56760000
H      -43.66070000     -28.29910000     -72.24020000
C      -42.94390000     -32.49880000     -70.38720000
H      -41.90870000     -32.22070000     -70.23490000
H      -42.96980000     -33.57270000     -70.51600000
C      -45.66530000     -31.60330000     -74.73760000
H      -46.00220000     -30.72410000     -75.30400000
H      -45.22890000     -32.28930000     -75.46720000
S      -43.61740000     -32.17490000     -68.67440000
S      -47.18700000     -32.61060000     -74.21500000
C      -45.41220000     -32.01870000     -68.98500000
H      -45.87600000     -31.14120000     -68.55460000
H      -45.58760000     -31.94910000     -70.05380000
C      -47.47430000     -32.17690000     -72.43570000
H      -48.18360000     -31.34330000     -72.26490000
H      -46.52670000     -31.88440000     -72.02190000
C      -47.92850000     -33.40860000     -71.70590000
H      -48.04870000     -33.01840000     -70.63540000
H      -48.94770000     -33.64670000     -72.12600000
C      -46.30960000     -33.20330000     -68.51660000
H      -47.36040000     -32.98820000     -68.70810000
H      -46.24330000     -33.26190000     -67.46250000
C      -45.86480000     -34.53810000     -69.14140000
C      -45.07370000     -35.34600000     -68.39740000
C      -46.09640000     -34.94700000     -70.52230000
H      -44.72070000     -35.30720000     -67.37940000
C      -45.41270000     -36.14830000     -70.74780000
C      -46.89790000     -34.59270000     -71.68170000
C      -46.72740000     -35.44810000     -72.72970000
S      -44.43930000     -36.67250000     -69.35270000
S      -45.52670000     -36.69090000     -72.41710000
H      -46.98390000     -35.20220000     -73.76220000
