40
Properties=species:S:1:pos:R:3 #=T CELL(abcABC):=T 1.889726e+02=T 90.00000=T Traj:=T positionsangstrom=T Step:=T 0=T Bead:=T pbc="F F F"
C      -44.77110000     -29.84300000     -73.20040000
C      -44.86610000     -31.23290000     -73.48200000
C      -44.15650000     -32.15660000     -72.63480000
C      -43.49970000     -31.71630000     -71.47840000
C      -43.40990000     -30.34880000     -71.27920000
C      -44.00580000     -29.41240000     -72.11420000
H      -45.28580000     -29.16480000     -73.82000000
H      -44.24710000     -33.23520000     -72.79920000
H      -42.76730000     -30.06720000     -70.40810000
H      -43.82280000     -28.33420000     -71.99200000
C      -42.99640000     -32.63310000     -70.44010000
H      -41.96150000     -32.69000000     -70.40760000
H      -43.32210000     -33.58630000     -70.78220000
C      -45.78010000     -31.41210000     -74.68080000
H      -46.09480000     -30.44000000     -75.04700000
H      -45.26380000     -31.90390000     -75.50900000
S      -43.60520000     -32.27250000     -68.77140000
S      -47.26490000     -32.42370000     -74.31590000
C      -45.49010000     -32.00720000     -69.11280000
H      -45.80310000     -31.11590000     -68.59770000
H      -45.67370000     -32.00320000     -70.17630000
C      -47.45840000     -32.28130000     -72.48520000
H      -48.12710000     -31.48190000     -72.32640000
H      -46.54210000     -31.92240000     -71.98600000
C      -47.99040000     -33.56890000     -71.76200000
H      -48.43040000     -33.26460000     -70.78190000
H      -48.86600000     -33.85640000     -72.41200000
C      -46.38830000     -33.12550000     -68.56360000
H      -47.40380000     -32.95950000     -68.88360000
H      -46.29110000     -33.13610000     -67.50260000
C      -45.96360000     -34.58680000     -69.13100000
C      -44.95750000     -35.27880000     -68.50210000
C      -46.16950000     -35.03630000     -70.45340000
H      -44.57410000     -35.12550000     -67.47280000
C      -45.35520000     -36.17250000     -70.67330000
C      -46.96180000     -34.69460000     -71.59960000
C      -46.66990000     -35.47020000     -72.65640000
S      -44.27450000     -36.52100000     -69.43300000
S      -45.37860000     -36.67130000     -72.31750000
H      -47.27290000     -35.70130000     -73.53470000
