40
Properties=species:S:1:pos:R:3 #=T CELL(abcABC):=T 1.889726e+02=T 90.00000=T Traj:=T positionsangstrom=T Step:=T 0=T Bead:=T pbc="F F F"
C      -46.87030000     -35.57190000     -74.81040000
C      -45.80360000     -34.71880000     -74.50870000
C      -44.88970000     -35.14320000     -73.56930000
C      -44.94560000     -36.43230000     -72.95980000
C      -46.06550000     -37.22040000     -73.29420000
C      -47.02560000     -36.76340000     -74.21240000
H      -47.61590000     -35.34390000     -75.63000000
H      -44.08870000     -34.47630000     -73.29270000
H      -46.09700000     -38.21160000     -72.90280000
H      -47.77360000     -37.48040000     -74.47180000
C      -43.73340000     -36.96650000     -72.27850000
H      -42.96540000     -37.31760000     -73.04090000
H      -43.95750000     -37.83270000     -71.56620000
C      -45.72730000     -33.32010000     -75.10340000
H      -45.61520000     -33.43890000     -76.20660000
H      -46.62560000     -32.67010000     -74.91080000
S      -42.86750000     -35.64430000     -71.32240000
S      -44.45110000     -32.23280000     -74.43220000
C      -44.24380000     -35.14350000     -70.18030000
H      -45.17380000     -34.95500000     -70.71480000
H      -44.35950000     -35.90210000     -69.40870000
C      -45.20080000     -31.99290000     -72.71710000
H      -45.46260000     -32.99850000     -72.32610000
H      -46.19810000     -31.56760000     -72.88250000
C      -44.39350000     -31.19740000     -71.72350000
H      -43.41470000     -31.67720000     -71.45730000
H      -44.10600000     -30.19270000     -72.27610000
C      -43.72460000     -33.79670000     -69.57430000
H      -43.34770000     -33.33270000     -70.48250000
H      -42.91920000     -33.89120000     -68.90870000
C      -44.79800000     -32.97990000     -68.90310000
C      -45.32180000     -33.39950000     -67.70010000
C      -45.45770000     -31.84420000     -69.46950000
H      -45.05190000     -34.25720000     -67.15800000
C      -46.44180000     -31.38880000     -68.57010000
C      -45.25780000     -30.92040000     -70.54990000
C      -46.12300000     -29.82310000     -70.46370000
S      -46.69660000     -32.39910000     -67.12990000
S      -47.16760000     -29.91310000     -69.12340000
H      -46.31620000     -29.11030000     -71.28570000
