40
Properties=species:S:1:pos:R:3 #=T CELL(abcABC):=T 1.889726e+02=T 90.00000=T Traj:=T positionsangstrom=T Step:=T 0=T Bead:=T pbc="F F F"
C      -44.53330000     -29.72720000     -73.36780000
C      -44.86610000     -31.09010000     -73.43060000
C      -44.34830000     -31.94180000     -72.42190000
C      -43.64060000     -31.40130000     -71.33650000
C      -43.41020000     -30.00280000     -71.28380000
C      -43.86070000     -29.15190000     -72.31920000
H      -44.90570000     -29.07620000     -74.15140000
H      -44.65730000     -32.99050000     -72.41490000
H      -42.72750000     -29.53330000     -70.54750000
H      -43.49540000     -28.10670000     -72.46400000
C      -43.22750000     -32.42010000     -70.21110000
H      -42.14460000     -32.52830000     -70.26160000
H      -43.69960000     -33.39660000     -70.45500000
C      -45.65900000     -31.54790000     -74.60750000
H      -45.95370000     -30.66160000     -75.13590000
H      -44.91560000     -32.14860000     -75.19730000
S      -43.89290000     -31.96310000     -68.59760000
S      -47.22250000     -32.56800000     -74.27710000
C      -45.77580000     -32.20970000     -68.96270000
H      -46.15670000     -31.37810000     -68.33730000
H      -45.90360000     -32.03110000     -70.02760000
C      -47.59670000     -32.31230000     -72.42510000
H      -48.45730000     -31.63150000     -72.34150000
H      -46.75250000     -31.68620000     -72.03530000
C      -47.98440000     -33.64450000     -71.64860000
H      -48.16720000     -33.33840000     -70.54060000
H      -48.95080000     -33.91770000     -71.98640000
C      -46.38960000     -33.49550000     -68.49680000
H      -47.46350000     -33.48650000     -68.88360000
H      -46.27560000     -33.47390000     -67.41410000
C      -45.74900000     -34.73430000     -69.10800000
C      -44.69100000     -35.42850000     -68.54970000
C      -46.13420000     -35.20200000     -70.46640000
H      -44.41680000     -35.18620000     -67.51080000
C      -45.25650000     -36.27510000     -70.87240000
C      -46.92600000     -34.76440000     -71.62860000
C      -46.64330000     -35.49720000     -72.70590000
S      -44.11510000     -36.68190000     -69.66280000
S      -45.35590000     -36.72230000     -72.48380000
H      -47.05280000     -35.48530000     -73.73700000
