40
Properties=species:S:1:pos:R:3 #=T CELL(abcABC):=T 1.889726e+02=T 90.00000=T Traj:=T positionsangstrom=T Step:=T 0=T Bead:=T pbc="F F F"
C      -44.64150000     -29.75180000     -73.28140000
C      -44.98050000     -31.07960000     -73.32130000
C      -44.48660000     -31.95400000     -72.31150000
C      -43.69900000     -31.42560000     -71.26180000
C      -43.27300000     -30.05700000     -71.27050000
C      -43.77750000     -29.27890000     -72.27920000
H      -44.88420000     -29.11910000     -74.04870000
H      -44.63410000     -33.00600000     -72.42520000
H      -42.68940000     -29.63100000     -70.50700000
H      -43.55530000     -28.21170000     -72.23380000
C      -43.23570000     -32.40250000     -70.24070000
H      -42.16480000     -32.18950000     -69.97660000
H      -43.35780000     -33.47350000     -70.49650000
C      -45.63240000     -31.67840000     -74.51020000
H      -45.93870000     -30.88040000     -75.20540000
H      -45.08470000     -32.36540000     -75.13950000
S      -44.16060000     -31.94230000     -68.63600000
S      -47.15690000     -32.65960000     -74.12410000
C      -45.97610000     -32.18580000     -68.96060000
H      -46.55900000     -31.38530000     -68.59460000
H      -46.20460000     -32.04510000     -70.04650000
C      -47.59190000     -32.29140000     -72.35700000
H      -48.52890000     -31.72310000     -72.34760000
H      -46.78750000     -31.72100000     -71.94280000
C      -47.91180000     -33.59010000     -71.57110000
H      -48.00860000     -33.30860000     -70.56190000
H      -48.87840000     -33.98890000     -71.92280000
C      -46.35470000     -33.58620000     -68.43120000
H      -47.43540000     -33.67350000     -68.38040000
H      -46.19120000     -33.61570000     -67.35270000
C      -45.60830000     -34.71340000     -69.20820000
C      -44.61800000     -35.46410000     -68.58800000
C      -45.85580000     -34.97970000     -70.61220000
H      -44.31400000     -35.41720000     -67.55560000
C      -45.06170000     -36.06720000     -71.05270000
C      -46.81730000     -34.67910000     -71.64660000
C      -46.65640000     -35.46560000     -72.73970000
S      -44.00020000     -36.63750000     -69.70580000
S      -45.44600000     -36.73080000     -72.66710000
H      -47.36150000     -35.52800000     -73.51600000
