40
Properties=species:S:1:pos:R:3 #=T CELL(abcABC):=T 1.889726e+02=T 90.00000=T Traj:=T positionsangstrom=T Step:=T 0=T Bead:=T pbc="F F F"
C      -44.53270000     -29.72310000     -73.26940000
C      -44.78970000     -31.11220000     -73.39610000
C      -44.27250000     -32.01820000     -72.45480000
C      -43.62710000     -31.48130000     -71.27250000
C      -43.42710000     -30.12320000     -71.16760000
C      -43.70250000     -29.29310000     -72.22940000
H      -44.98650000     -29.07600000     -73.97930000
H      -44.57550000     -33.04640000     -72.48830000
H      -43.08370000     -29.65420000     -70.23410000
H      -43.43850000     -28.28750000     -72.14440000
C      -43.27460000     -32.24890000     -70.05500000
H      -42.29670000     -32.00470000     -69.67190000
H      -43.26830000     -33.31850000     -70.16730000
C      -45.76980000     -31.64570000     -74.52650000
H      -46.07570000     -30.77910000     -75.13570000
H      -45.19950000     -32.31450000     -75.12200000
S      -44.15300000     -31.77600000     -68.46340000
S      -47.20020000     -32.72220000     -74.06710000
C      -45.89580000     -32.09300000     -68.81180000
H      -46.37380000     -31.37230000     -68.08050000
H      -46.08590000     -31.95480000     -69.88100000
C      -47.62750000     -32.34260000     -72.34190000
H      -48.49760000     -31.57500000     -72.27850000
H      -46.76100000     -32.01200000     -71.78350000
C      -47.94140000     -33.64280000     -71.60510000
H      -48.21210000     -33.33790000     -70.60420000
H      -48.94920000     -34.15840000     -72.00200000
C      -46.37830000     -33.56810000     -68.50010000
H      -47.39810000     -33.66930000     -68.75080000
H      -46.19260000     -33.76180000     -67.39980000
C      -45.59380000     -34.61600000     -69.30070000
C      -44.73660000     -35.49230000     -68.64360000
C      -45.87220000     -35.05470000     -70.71350000
H      -44.36580000     -35.49800000     -67.67000000
C      -45.08070000     -36.14110000     -71.11220000
C      -46.88670000     -34.71870000     -71.71640000
C      -46.77350000     -35.56070000     -72.78380000
S      -43.98900000     -36.64450000     -69.81350000
S      -45.40010000     -36.74360000     -72.73480000
H      -47.45220000     -35.44680000     -73.53680000
