40
Properties=species:S:1:pos:R:3 #=T CELL(abcABC):=T 1.889726e+02=T 90.00000=T Traj:=T positionsangstrom=T Step:=T 0=T Bead:=T pbc="F F F"
C      -45.00850000     -36.66080000     -72.98240000
C      -45.64670000     -36.60810000     -71.72860000
C      -44.90030000     -36.66050000     -70.59910000
C      -43.48190000     -36.43370000     -70.61140000
C      -42.81270000     -36.48600000     -71.90910000
C      -43.60540000     -36.69730000     -73.04020000
H      -45.68260000     -36.69070000     -73.83280000
H      -45.37460000     -36.59430000     -69.66980000
H      -41.80850000     -36.34450000     -71.90580000
H      -43.20290000     -36.77080000     -74.03000000
C      -42.80020000     -36.27560000     -69.20650000
H      -41.68160000     -36.43930000     -69.21060000
H      -43.17250000     -37.05930000     -68.63600000
C      -47.16310000     -36.60100000     -71.47780000
H      -47.69430000     -37.53830000     -71.43320000
H      -47.29060000     -36.22420000     -70.45080000
S      -43.38590000     -34.83140000     -68.26140000
S      -48.18140000     -35.67280000     -72.69370000
C      -43.23430000     -33.29000000     -69.36230000
H      -42.96880000     -32.52660000     -68.66690000
H      -42.27770000     -33.53460000     -69.83740000
C      -47.90620000     -33.85470000     -72.20780000
H      -47.94110000     -33.69190000     -71.05830000
H      -48.81030000     -33.33980000     -72.60120000
C      -46.57250000     -33.27360000     -72.75040000
H      -45.67410000     -33.88060000     -72.43720000
H      -46.48840000     -33.49770000     -73.81080000
C      -44.29940000     -33.04950000     -70.35170000
H      -45.17990000     -33.53250000     -69.95990000
H      -44.22220000     -33.68110000     -71.31130000
C      -44.49840000     -31.55510000     -70.64930000
C      -43.90150000     -30.48430000     -70.11290000
C      -45.50360000     -31.13830000     -71.64060000
H      -43.18230000     -30.54970000     -69.27560000
C      -45.70460000     -29.79250000     -71.63720000
C      -46.47550000     -31.84460000     -72.51050000
C      -47.28020000     -30.96880000     -73.12510000
S      -44.64470000     -28.97280000     -70.56390000
S      -46.94150000     -29.30650000     -72.77420000
H      -48.04680000     -31.12230000     -73.92400000
