40
Properties=species:S:1:pos:R:3 #=T CELL(abcABC):=T 1.889726e+02=T 90.00000=T Traj:=T positionsangstrom=T Step:=T 0=T Bead:=T pbc="F F F"
C      -45.14900000     -36.79930000     -72.89840000
C      -45.69370000     -36.75160000     -71.57590000
C      -44.94280000     -36.38340000     -70.50560000
C      -43.54220000     -36.01800000     -70.61010000
C      -43.04130000     -36.07690000     -71.91570000
C      -43.81720000     -36.37840000     -73.06140000
H      -45.76360000     -37.18100000     -73.75360000
H      -45.45520000     -36.32750000     -69.44770000
H      -41.96670000     -35.92940000     -72.10370000
H      -43.36390000     -36.35610000     -74.07000000
C      -42.61830000     -35.76900000     -69.34710000
H      -41.66860000     -35.28590000     -69.65470000
H      -42.48570000     -36.77330000     -68.89360000
C      -47.19160000     -37.02560000     -71.53180000
H      -47.42900000     -37.97540000     -72.13150000
H      -47.64360000     -37.20820000     -70.56280000
S      -43.37480000     -34.61960000     -68.03910000
S      -48.24510000     -35.68110000     -72.36300000
C      -43.27670000     -33.04780000     -69.05360000
H      -43.57580000     -32.26820000     -68.29330000
H      -42.25050000     -32.82160000     -69.34450000
C      -47.50000000     -34.05830000     -71.96820000
H      -47.35770000     -33.92610000     -70.88300000
H      -48.29890000     -33.28970000     -72.11530000
C      -46.31970000     -33.62740000     -72.85750000
H      -45.41450000     -34.13760000     -72.67350000
H      -46.45030000     -33.83840000     -73.95840000
C      -44.24450000     -32.99500000     -70.23890000
H      -45.09260000     -33.55420000     -69.98160000
H      -43.89460000     -33.56400000     -71.11790000
C      -44.49100000     -31.53650000     -70.68760000
C      -44.05230000     -30.37830000     -70.00740000
C      -45.41120000     -31.32570000     -71.80770000
H      -43.39750000     -30.12450000     -69.15040000
C      -45.74750000     -29.92460000     -71.87580000
C      -46.19420000     -32.12040000     -72.67670000
C      -46.94870000     -31.32750000     -73.54610000
S      -44.87450000     -28.96320000     -70.70050000
S      -46.93920000     -29.59230000     -73.07750000
H      -47.58590000     -31.70130000     -74.38360000
