40
Properties=species:S:1:pos:R:3 #=T CELL(abcABC):=T 1.889726e+02=T 90.00000=T Traj:=T positionsangstrom=T Step:=T 0=T Bead:=T pbc="F F F"
C      -44.53910000     -30.28430000     -72.88000000
C      -44.57290000     -31.70320000     -72.82890000
C      -44.01230000     -32.26050000     -71.65070000
C      -43.38930000     -31.54650000     -70.58860000
C      -43.38130000     -30.19800000     -70.70060000
C      -43.92840000     -29.58100000     -71.84650000
H      -45.03340000     -29.86630000     -73.71770000
H      -44.00640000     -33.37120000     -71.52840000
H      -42.92380000     -29.65320000     -69.88760000
H      -44.01350000     -28.48840000     -71.81000000
C      -43.00420000     -32.16160000     -69.26360000
H      -42.14740000     -31.82930000     -68.71320000
H      -43.02330000     -33.22440000     -69.36250000
C      -45.05590000     -32.57030000     -73.96080000
H      -44.57030000     -32.37510000     -74.92210000
H      -44.89640000     -33.59480000     -73.52510000
S      -44.38540000     -31.73200000     -67.98800000
S      -46.97760000     -32.31550000     -74.30890000
C      -46.04740000     -31.86380000     -68.97310000
H      -46.88210000     -31.31000000     -68.45160000
H      -46.09880000     -31.41780000     -70.01870000
C      -47.79130000     -32.46550000     -72.58390000
H      -48.54870000     -31.74360000     -72.31060000
H      -47.02310000     -32.23280000     -71.83220000
C      -48.25800000     -33.97580000     -72.34820000
H      -48.87440000     -34.07910000     -71.45260000
H      -48.84030000     -34.51280000     -73.23510000
C      -46.61560000     -33.24070000     -69.04600000
H      -47.68720000     -33.23250000     -69.51560000
H      -46.84670000     -33.65120000     -68.01670000
C      -45.75020000     -34.32700000     -69.82230000
C      -44.68410000     -34.87000000     -69.14890000
C      -46.06160000     -34.95590000     -71.09670000
H      -44.32420000     -34.62850000     -68.17750000
C      -45.14910000     -35.94820000     -71.38610000
C      -46.99490000     -34.86840000     -72.26780000
C      -46.73610000     -35.80480000     -73.26210000
S      -44.01990000     -36.20650000     -70.05020000
S      -45.44030000     -36.85640000     -72.83360000
H      -47.40870000     -35.89020000     -74.12590000
