40
Properties=species:S:1:pos:R:3 #=T CELL(abcABC):=T 1.889726e+02=T 90.00000=T Traj:=T positionsangstrom=T Step:=T 0=T Bead:=T pbc="F F F"
C      -44.43820000     -30.05850000     -73.24790000
C      -44.49160000     -31.47630000     -73.10510000
C      -44.13400000     -32.06160000     -71.89430000
C      -43.78240000     -31.29260000     -70.77180000
C      -43.74400000     -29.89990000     -70.90870000
C      -44.09780000     -29.28820000     -72.14640000
H      -44.88300000     -29.58540000     -74.14230000
H      -44.21590000     -33.13240000     -71.80060000
H      -43.39420000     -29.25840000     -70.09860000
H      -44.14550000     -28.23070000     -72.28120000
C      -43.44710000     -31.94920000     -69.49270000
H      -42.54960000     -31.45740000     -68.96700000
H      -43.27280000     -33.06400000     -69.60520000
C      -44.90670000     -32.40610000     -74.26010000
H      -44.38990000     -32.04310000     -75.16690000
H      -44.51450000     -33.40110000     -73.95350000
S      -44.64170000     -31.79870000     -68.13060000
S      -46.76240000     -32.54210000     -74.36570000
C      -46.29330000     -32.38670000     -68.71170000
H      -47.05170000     -31.74960000     -68.09220000
H      -46.40770000     -32.18650000     -69.78530000
C      -47.38360000     -32.38260000     -72.62870000
H      -48.21300000     -31.71630000     -72.54440000
H      -46.52420000     -31.94390000     -72.03010000
C      -47.93290000     -33.68360000     -71.89570000
H      -48.07970000     -33.31970000     -70.84070000
H      -48.82640000     -33.91160000     -72.41240000
C      -46.69890000     -33.83690000     -68.60680000
H      -47.78390000     -33.78520000     -68.94500000
H      -46.76730000     -34.14730000     -67.47280000
C      -45.83840000     -34.78420000     -69.42660000
C      -44.73960000     -35.36780000     -68.92260000
C      -46.02980000     -35.14540000     -70.83210000
H      -44.42180000     -35.29220000     -67.86750000
C      -45.06770000     -36.11710000     -71.25590000
C      -46.98420000     -34.78490000     -71.85030000
C      -46.64730000     -35.39090000     -73.02740000
S      -43.82920000     -36.34480000     -70.02340000
S      -45.34670000     -36.58960000     -72.93320000
H      -47.27380000     -35.36470000     -73.92860000
