40
Properties=species:S:1:pos:R:3 #=T CELL(abcABC):=T 1.889726e+02=T 90.00000=T Traj:=T positionsangstrom=T Step:=T 0=T Bead:=T pbc="F F F"
C      -41.62510000     -34.51650000     -69.25910000
C      -42.40820000     -35.20440000     -70.20270000
C      -43.73930000     -35.64000000     -69.91630000
C      -44.26960000     -35.41010000     -68.66740000
C      -43.53060000     -34.63290000     -67.72100000
C      -42.23010000     -34.20110000     -68.05990000
H      -40.59480000     -34.18390000     -69.37000000
H      -44.40090000     -36.08540000     -70.68040000
H      -43.95280000     -34.47320000     -66.74930000
H      -41.72360000     -33.68370000     -67.28590000
C      -45.77250000     -35.78820000     -68.31620000
H      -45.75980000     -36.25900000     -67.33520000
H      -46.03800000     -36.58970000     -68.94090000
C      -41.78830000     -35.28620000     -71.67820000
H      -40.77580000     -35.62530000     -71.75920000
H      -42.34050000     -36.03910000     -72.30180000
S      -46.93730000     -34.33580000     -68.45010000
S      -41.82150000     -33.62300000     -72.40280000
C      -45.88270000     -32.87410000     -68.83130000
H      -46.57540000     -32.20350000     -68.41870000
H      -44.95640000     -32.86250000     -68.22730000
C      -43.60680000     -33.57480000     -73.05770000
H      -44.22730000     -34.04510000     -72.33020000
H      -43.58140000     -34.18350000     -74.00370000
C      -44.04700000     -32.14750000     -73.34490000
H      -43.85660000     -31.59880000     -72.40650000
H      -43.44930000     -31.71960000     -74.11030000
C      -45.58660000     -32.44830000     -70.35820000
H      -44.76820000     -33.05760000     -70.80160000
H      -45.19560000     -31.42180000     -70.25090000
C      -46.76820000     -32.21050000     -71.26480000
C      -48.07980000     -32.10720000     -70.92860000
C      -46.61040000     -32.09840000     -72.69930000
H      -48.44740000     -32.14470000     -69.86640000
C      -47.86120000     -32.02450000     -73.36340000
C      -45.52300000     -32.15740000     -73.65970000
C      -45.93050000     -32.11200000     -74.95310000
S      -49.20770000     -31.97560000     -72.31670000
S      -47.72550000     -32.01710000     -75.08490000
H      -45.25190000     -32.33060000     -75.83840000
