40
Properties=species:S:1:pos:R:3 #=T CELL(abcABC):=T 1.889726e+02=T 90.00000=T Traj:=T positionsangstrom=T Step:=T 0=T Bead:=T pbc="F F F"
C      -41.57500000     -34.49990000     -69.06240000
C      -42.25840000     -35.17530000     -70.16460000
C      -43.61340000     -35.43390000     -69.94930000
C      -44.27920000     -35.36530000     -68.67000000
C      -43.57290000     -34.82720000     -67.59750000
C      -42.25800000     -34.31770000     -67.87670000
H      -40.54260000     -34.06680000     -69.10890000
H      -44.26980000     -35.84210000     -70.71850000
H      -43.97620000     -34.75060000     -66.59550000
H      -41.71570000     -33.76820000     -67.11260000
C      -45.69500000     -35.73020000     -68.54270000
H      -46.04860000     -36.01210000     -67.53360000
H      -46.01050000     -36.48080000     -69.35110000
C      -41.62410000     -35.30690000     -71.48630000
H      -40.54130000     -35.40640000     -71.35810000
H      -42.11960000     -35.97600000     -72.11820000
S      -46.87920000     -34.21960000     -68.75950000
S      -41.82290000     -33.61310000     -72.37700000
C      -46.04440000     -32.55600000     -68.90940000
H      -46.81420000     -31.78820000     -68.65020000
H      -45.17650000     -32.48580000     -68.26740000
C      -43.54450000     -33.66820000     -72.89520000
H      -44.16500000     -34.08830000     -72.10890000
H      -43.52820000     -34.38810000     -73.73300000
C      -44.06420000     -32.33900000     -73.38730000
H      -43.92340000     -31.59210000     -72.62000000
H      -43.54160000     -32.01870000     -74.27260000
C      -45.52310000     -32.28570000     -70.32480000
H      -44.87330000     -33.11370000     -70.54110000
H      -44.92770000     -31.40050000     -70.37750000
C      -46.72500000     -32.19450000     -71.27560000
C      -48.04270000     -32.14750000     -70.88480000
C      -46.63510000     -32.13360000     -72.70040000
H      -48.37730000     -32.16320000     -69.85300000
C      -47.88420000     -32.11630000     -73.32910000
C      -45.62010000     -32.27030000     -73.72060000
C      -46.09010000     -32.20940000     -75.00280000
S      -49.22980000     -32.03470000     -72.21150000
S      -47.83040000     -32.05580000     -75.10670000
H      -45.61530000     -32.36580000     -75.97640000
