40
Properties=species:S:1:pos:R:3 #=T CELL(abcABC):=T 1.889726e+02=T 90.00000=T Traj:=T positionsangstrom=T Step:=T 0=T Bead:=T pbc="F F F"
C      -43.43440000     -29.74820000     -71.15060000
C      -42.84950000     -30.96080000     -71.05970000
C      -42.98850000     -31.78330000     -69.93140000
C      -43.74930000     -31.39310000     -68.82140000
C      -44.24960000     -30.07770000     -68.90380000
C      -44.04760000     -29.28260000     -70.01470000
H      -43.50720000     -29.28230000     -72.12620000
H      -42.61940000     -32.81050000     -70.00070000
H      -44.84210000     -29.75250000     -68.07720000
H      -44.45520000     -28.23770000     -69.94680000
C      -43.94910000     -32.28760000     -67.64310000
H      -43.77590000     -31.70980000     -66.72630000
H      -43.25310000     -33.14900000     -67.64260000
C      -42.05720000     -31.52660000     -72.18820000
H      -41.20550000     -30.90460000     -72.59600000
H      -41.48140000     -32.43610000     -71.91380000
S      -45.67930000     -32.77060000     -67.48310000
S      -43.13150000     -32.08660000     -73.52050000
C      -46.00530000     -33.94990000     -68.90370000
H      -45.09320000     -34.53600000     -69.09930000
H      -46.79180000     -34.67090000     -68.57990000
C      -43.10780000     -33.97020000     -73.34250000
H      -42.09260000     -34.25690000     -73.18240000
H      -43.44600000     -34.39770000     -74.28430000
C      -43.98070000     -34.68010000     -72.17620000
H      -43.33230000     -35.34550000     -71.55900000
H      -44.28570000     -33.97760000     -71.43690000
C      -46.40890000     -33.11150000     -70.18470000
H      -45.49920000     -32.60670000     -70.51630000
H      -47.07800000     -32.41010000     -69.78740000
C      -47.12100000     -33.98300000     -71.21700000
C      -48.53980000     -34.06670000     -71.23630000
C      -46.54340000     -34.86840000     -72.22920000
H      -49.24040000     -33.41200000     -70.73420000
C      -47.57070000     -35.56500000     -72.92590000
C      -45.25930000     -35.30020000     -72.72050000
C      -45.26670000     -36.40490000     -73.54720000
S      -49.19530000     -35.12050000     -72.46980000
S      -46.96850000     -36.83480000     -74.00960000
H      -44.45170000     -36.69730000     -74.19910000
