40
Properties=species:S:1:pos:R:3 #=T CELL(abcABC):=T 1.889726e+02=T 90.00000=T Traj:=T positionsangstrom=T Step:=T 0=T Bead:=T pbc="F F F"
C      -41.74120000     -33.96810000     -68.74930000
C      -42.29240000     -34.85770000     -69.70280000
C      -43.55160000     -35.41050000     -69.49260000
C      -44.33050000     -35.04720000     -68.33220000
C      -43.66290000     -34.31730000     -67.33090000
C      -42.32780000     -33.86940000     -67.48750000
H      -40.68130000     -33.61000000     -68.88940000
H      -44.01370000     -36.03620000     -70.26610000
H      -44.13110000     -34.03430000     -66.40180000
H      -41.87250000     -33.30230000     -66.69410000
C      -45.79720000     -35.35980000     -68.28950000
H      -46.32950000     -35.23780000     -67.33740000
H      -45.92730000     -36.39410000     -68.66020000
C      -41.49220000     -35.16430000     -70.91630000
H      -40.46040000     -34.97860000     -70.79520000
H      -41.57350000     -36.15780000     -71.27850000
S      -46.76390000     -34.35910000     -69.56040000
S      -41.82880000     -34.07640000     -72.43710000
C      -46.21280000     -32.64390000     -69.06760000
H      -47.05380000     -32.17700000     -68.58100000
H      -45.43260000     -32.73990000     -68.28480000
C      -43.63510000     -34.00160000     -72.55460000
H      -44.13770000     -34.14980000     -71.59580000
H      -44.14710000     -34.77990000     -73.14590000
C      -44.09460000     -32.59800000     -73.19120000
H      -43.88400000     -31.80170000     -72.48980000
H      -43.44790000     -32.55550000     -74.04900000
C      -45.75750000     -31.93630000     -70.33960000
H      -44.86330000     -32.49420000     -70.60810000
H      -45.44570000     -30.89870000     -70.15590000
C      -46.87760000     -32.07220000     -71.40280000
C      -48.21260000     -31.91020000     -71.09970000
C      -46.66240000     -32.31830000     -72.80300000
H      -48.53700000     -31.73900000     -70.10950000
C      -47.80190000     -32.17830000     -73.53180000
C      -45.50120000     -32.56840000     -73.60650000
C      -45.85530000     -32.63540000     -74.92230000
S      -49.29610000     -31.81970000     -72.50900000
S      -47.56100000     -32.36870000     -75.21980000
H      -45.14870000     -32.82360000     -75.75630000
