40
Properties=species:S:1:pos:R:3 #=T CELL(abcABC):=T 1.889726e+02=T 90.00000=T Traj:=T positionsangstrom=T Step:=T 0=T Bead:=T pbc="F F F"
C      -41.45720000     -34.29410000     -68.88200000
C      -42.25200000     -35.04580000     -69.76590000
C      -43.56670000     -35.32780000     -69.33530000
C      -44.10490000     -34.82360000     -68.14340000
C      -43.27760000     -34.21500000     -67.24500000
C      -41.99780000     -33.86520000     -67.67250000
H      -40.50960000     -33.88880000     -69.27190000
H      -44.16800000     -35.96710000     -69.92730000
H      -43.80240000     -33.74450000     -66.40270000
H      -41.41500000     -33.16460000     -67.06260000
C      -45.55340000     -34.99770000     -67.90130000
H      -45.81430000     -34.52200000     -66.91800000
H      -45.79930000     -36.06910000     -67.76870000
C      -41.77300000     -35.48300000     -71.09960000
H      -40.65000000     -35.65170000     -71.11050000
H      -42.30940000     -36.31940000     -71.45970000
S      -46.61430000     -34.36830000     -69.42040000
S      -42.02040000     -34.07880000     -72.29530000
C      -46.47100000     -32.53160000     -69.06970000
H      -47.37270000     -32.10350000     -68.62270000
H      -45.64890000     -32.38600000     -68.40050000
C      -43.86100000     -33.85960000     -72.34650000
H      -44.21360000     -34.04750000     -71.34100000
H      -44.30630000     -34.65820000     -73.00960000
C      -44.23470000     -32.44270000     -72.90770000
H      -44.02810000     -31.70780000     -72.15130000
H      -43.40240000     -32.28260000     -73.57320000
C      -46.07390000     -31.78490000     -70.30300000
H      -45.09100000     -32.12990000     -70.56880000
H      -45.92710000     -30.72380000     -69.97730000
C      -47.09760000     -31.95540000     -71.44140000
C      -48.47000000     -31.80920000     -71.32920000
C      -46.72750000     -32.21710000     -72.81310000
H      -49.04280000     -31.45690000     -70.45950000
C      -47.84760000     -32.30750000     -73.70440000
C      -45.52480000     -32.35220000     -73.56210000
C      -45.63760000     -32.58090000     -74.90220000
S      -49.35740000     -31.98970000     -72.85170000
S      -47.37310000     -32.62390000     -75.35320000
H      -44.82580000     -32.67600000     -75.61520000
