40
Properties=species:S:1:pos:R:3 #=T CELL(abcABC):=T 1.889726e+02=T 90.00000=T Traj:=T positionsangstrom=T Step:=T 0=T Bead:=T pbc="F F F"
C      -44.78850000     -29.96380000     -69.15760000
C      -44.48780000     -31.28810000     -68.95200000
C      -45.49300000     -32.25080000     -68.62880000
C      -46.84760000     -31.75830000     -68.44810000
C      -47.09700000     -30.40910000     -68.68180000
C      -46.07290000     -29.51100000     -69.07300000
H      -43.96040000     -29.30710000     -69.39710000
H      -45.25940000     -33.23730000     -68.32660000
H      -48.07520000     -30.02300000     -68.72180000
H      -46.39900000     -28.47950000     -69.31370000
C      -47.92810000     -32.69840000     -68.08490000
H      -48.57860000     -32.42330000     -67.23120000
H      -47.46350000     -33.60370000     -67.78600000
C      -42.99140000     -31.77530000     -69.06930000
H      -42.28640000     -30.98270000     -68.94410000
H      -42.85180000     -32.52240000     -68.20910000
S      -49.04440000     -33.09800000     -69.59970000
S      -42.64180000     -32.71420000     -70.60200000
C      -48.05930000     -34.29660000     -70.63460000
H      -47.65180000     -35.06720000     -70.02240000
H      -48.74100000     -34.75300000     -71.29610000
C      -43.14300000     -31.46490000     -71.90550000
H      -42.21320000     -31.40940000     -72.51530000
H      -43.35990000     -30.52630000     -71.53010000
C      -44.27170000     -32.03480000     -72.74510000
H      -45.13920000     -32.03250000     -72.08650000
H      -44.54670000     -31.27480000     -73.49910000
C      -46.83280000     -33.78170000     -71.47460000
H      -46.07320000     -33.39650000     -70.92590000
H      -47.17440000     -32.98700000     -72.19370000
C      -46.18050000     -34.83330000     -72.19710000
C      -46.55850000     -36.13470000     -72.42910000
C      -44.99300000     -34.62760000     -73.04400000
H      -47.40830000     -36.59310000     -71.94140000
C      -44.56310000     -35.67030000     -73.84790000
C      -44.16530000     -33.42270000     -73.36040000
C      -43.08490000     -33.72650000     -74.11300000
S      -45.56770000     -37.10610000     -73.52850000
S      -43.09120000     -35.41410000     -74.76180000
H      -42.27320000     -33.08390000     -74.36480000
