40
Properties=species:S:1:pos:R:3 #=T CELL(abcABC):=T 1.889726e+02=T 90.00000=T Traj:=T positionsangstrom=T Step:=T 0=T Bead:=T pbc="F F F"
C      -44.89070000     -34.00160000     -67.36550000
C      -43.92510000     -33.31330000     -68.07270000
C      -44.12310000     -32.02260000     -68.53520000
C      -45.43970000     -31.51100000     -68.50150000
C      -46.43370000     -32.18450000     -67.75350000
C      -46.16010000     -33.44640000     -67.14560000
H      -44.69890000     -35.01980000     -66.94380000
H      -43.40080000     -31.41710000     -69.03170000
H      -47.41160000     -31.78350000     -67.77760000
H      -46.93530000     -33.83270000     -66.61140000
C      -45.74690000     -30.23490000     -69.23960000
H      -44.98080000     -29.91170000     -69.93680000
H      -45.93080000     -29.47920000     -68.52890000
C      -42.52420000     -33.90760000     -68.26140000
H      -41.88400000     -32.96470000     -68.47790000
H      -42.21760000     -34.41710000     -67.38090000
S      -47.32490000     -30.39270000     -70.29280000
S      -42.41700000     -35.22540000     -69.53690000
C      -46.92840000     -31.50800000     -71.72040000
H      -47.22820000     -32.51850000     -71.40390000
H      -47.51370000     -31.40940000     -72.72630000
C      -43.42900000     -34.47820000     -70.88720000
H      -42.94170000     -34.65240000     -71.93830000
H      -43.44040000     -33.38170000     -70.79960000
C      -44.89020000     -34.82670000     -70.86420000
H      -45.05460000     -35.89590000     -70.54130000
H      -45.53290000     -34.11820000     -70.29990000
C      -45.42310000     -31.67880000     -72.20740000
H      -44.82670000     -32.12030000     -71.44850000
H      -44.93190000     -30.69500000     -72.45680000
C      -45.55460000     -32.54060000     -73.40980000
C      -45.77120000     -32.00750000     -74.63060000
C      -45.57350000     -33.99330000     -73.37170000
H      -46.02000000     -30.92510000     -74.81720000
C      -45.94830000     -34.52650000     -74.64100000
C      -45.42790000     -34.96720000     -72.31710000
C      -45.47770000     -36.27710000     -72.85380000
S      -46.27400000     -33.27400000     -75.78180000
S      -46.07900000     -36.21090000     -74.55410000
H      -45.20140000     -37.22090000     -72.42170000
