40
Properties=species:S:1:pos:R:3 #=T CELL(abcABC):=T 1.889726e+02=T 90.00000=T Traj:=T positionsangstrom=T Step:=T 0=T Bead:=T pbc="F F F"
C      -44.54920000     -29.98460000     -69.03090000
C      -44.32760000     -31.35390000     -68.84210000
C      -45.39750000     -32.22760000     -68.54040000
C      -46.67650000     -31.76730000     -68.49440000
C      -46.95290000     -30.37450000     -68.89130000
C      -45.89260000     -29.55070000     -69.15400000
H      -43.86240000     -29.24180000     -69.36980000
H      -45.27460000     -33.27820000     -68.38170000
H      -48.04700000     -30.08790000     -69.02270000
H      -46.11660000     -28.47990000     -69.40880000
C      -47.88540000     -32.61200000     -68.12930000
H      -48.48460000     -32.12570000     -67.43640000
H      -47.56290000     -33.54550000     -67.56660000
C      -42.97000000     -31.98500000     -68.98400000
H      -42.25780000     -31.14230000     -69.12130000
H      -42.70680000     -32.68060000     -68.18650000
S      -48.89330000     -32.91410000     -69.58790000
S      -42.96810000     -32.93430000     -70.60260000
C      -47.95470000     -34.33680000     -70.41230000
H      -47.70650000     -35.10970000     -69.73760000
H      -48.70310000     -34.62840000     -71.07280000
C      -43.18750000     -31.67220000     -71.93760000
H      -42.25190000     -31.57880000     -72.41980000
H      -43.38130000     -30.72250000     -71.35230000
C      -44.34970000     -31.90180000     -72.83290000
H      -45.27120000     -31.73270000     -72.29840000
H      -44.37150000     -31.12450000     -73.61750000
C      -46.68520000     -33.89960000     -71.20000000
H      -46.00860000     -33.34100000     -70.55000000
H      -47.00930000     -33.11250000     -71.87160000
C      -46.01960000     -34.90030000     -72.01700000
C      -46.41990000     -36.23100000     -72.23100000
C      -44.99380000     -34.56290000     -72.99850000
H      -47.19540000     -36.82360000     -71.75120000
C      -44.51720000     -35.67960000     -73.77630000
C      -44.24060000     -33.34760000     -73.42500000
C      -43.38230000     -33.58790000     -74.51880000
S      -45.50360000     -37.09310000     -73.43150000
S      -43.43010000     -35.27060000     -75.03740000
H      -42.70410000     -32.87760000     -74.95230000
