40
Properties=species:S:1:pos:R:3 #=T CELL(abcABC):=T 1.889726e+02=T 90.00000=T Traj:=T positionsangstrom=T Step:=T 0=T Bead:=T pbc="F F F"
C      -44.45630000     -29.97750000     -69.01110000
C      -44.28570000     -31.35190000     -68.89240000
C      -45.47670000     -32.18500000     -68.69110000
C      -46.68620000     -31.61850000     -68.52890000
C      -46.84390000     -30.20580000     -68.64810000
C      -45.75960000     -29.45170000     -68.84850000
H      -43.63890000     -29.30810000     -69.08550000
H      -45.27610000     -33.28760000     -68.64780000
H      -47.74390000     -29.80630000     -68.18680000
H      -45.77490000     -28.32850000     -68.91300000
C      -47.85240000     -32.44750000     -68.05530000
H      -48.47310000     -31.90300000     -67.41000000
H      -47.62770000     -33.40610000     -67.45360000
C      -42.99630000     -32.06100000     -69.04650000
H      -42.16380000     -31.33410000     -69.12000000
H      -42.87870000     -32.72400000     -68.19330000
S      -48.84430000     -32.97340000     -69.50870000
S      -42.99960000     -33.15580000     -70.49270000
C      -47.73290000     -34.23890000     -70.28000000
H      -47.10670000     -34.58630000     -69.43950000
H      -48.19930000     -35.14730000     -70.68470000
C      -43.03180000     -31.95310000     -71.89970000
H      -42.05800000     -31.95470000     -72.36800000
H      -43.21410000     -30.92410000     -71.41270000
C      -44.26400000     -32.06680000     -72.85840000
H      -45.12370000     -32.07820000     -72.15880000
H      -44.30120000     -31.20010000     -73.53650000
C      -46.73340000     -33.73540000     -71.34340000
H      -45.95960000     -33.09290000     -70.86470000
H      -47.22210000     -33.03160000     -71.98940000
C      -46.05510000     -34.79220000     -72.11620000
C      -46.37530000     -36.09000000     -72.15430000
C      -45.07640000     -34.48650000     -73.19980000
H      -46.96500000     -36.58060000     -71.36420000
C      -44.75250000     -35.60100000     -73.91180000
C      -44.31250000     -33.35780000     -73.64530000
C      -43.55570000     -33.61440000     -74.80770000
S      -45.49150000     -37.03620000     -73.31760000
S      -43.58950000     -35.32780000     -75.21030000
H      -42.90800000     -32.81870000     -75.19440000
