40
Properties=species:S:1:pos:R:3 #=T CELL(abcABC):=T 1.889726e+02=T 90.00000=T Traj:=T positionsangstrom=T Step:=T 0=T Bead:=T pbc="F F F"
C      -42.04600000     -34.04890000     -68.89970000
C      -42.78790000     -35.02310000     -69.64220000
C      -44.10780000     -35.23750000     -69.24920000
C      -44.59210000     -34.62180000     -68.03100000
C      -43.86520000     -33.65800000     -67.33270000
C      -42.60390000     -33.31610000     -67.86040000
H      -41.12140000     -33.83430000     -69.25680000
H      -44.65340000     -36.08510000     -69.75770000
H      -44.32050000     -33.18200000     -66.50450000
H      -41.98960000     -32.63560000     -67.30920000
C      -45.95200000     -34.88150000     -67.59270000
H      -46.14060000     -34.49050000     -66.64300000
H      -46.23280000     -35.93140000     -67.48210000
C      -42.13610000     -35.63190000     -70.83810000
H      -41.11820000     -35.88840000     -70.57590000
H      -42.55300000     -36.60460000     -71.08160000
S      -47.30470000     -34.13920000     -68.68420000
S      -41.84350000     -34.55710000     -72.31880000
C      -46.49260000     -32.50530000     -69.03610000
H      -47.28180000     -31.69870000     -68.86360000
H      -45.74090000     -32.46610000     -68.25370000
C      -43.50520000     -34.30290000     -72.92980000
H      -44.30590000     -34.71450000     -72.26020000
H      -43.70720000     -34.77720000     -73.86890000
C      -43.79070000     -32.81060000     -73.19240000
H      -43.63780000     -32.27630000     -72.20520000
H      -43.03620000     -32.45020000     -73.82860000
C      -45.73340000     -32.42050000     -70.36740000
H      -45.02640000     -33.26920000     -70.40840000
H      -45.12460000     -31.45040000     -70.34670000
C      -46.66730000     -32.35260000     -71.60360000
C      -48.02530000     -32.09970000     -71.36400000
C      -46.35610000     -32.41400000     -72.96280000
H      -48.44660000     -31.95400000     -70.38040000
C      -47.43780000     -32.06810000     -73.83430000
C      -45.16450000     -32.61320000     -73.80600000
C      -45.37890000     -32.51770000     -75.17420000
S      -48.87530000     -31.95750000     -72.84320000
S      -47.04700000     -32.07910000     -75.54560000
H      -44.75030000     -32.71190000     -76.03870000
