40
Properties=species:S:1:pos:R:3 #=T CELL(abcABC):=T 1.889726e+02=T 90.00000=T Traj:=T positionsangstrom=T Step:=T 0=T Bead:=T pbc="F F F"
C      -44.71400000     -33.18120000     -66.98540000
C      -43.80710000     -32.95720000     -68.05980000
C      -43.92030000     -31.78560000     -68.78830000
C      -45.06400000     -30.96950000     -68.61930000
C      -46.00180000     -31.21620000     -67.64800000
C      -45.83050000     -32.37000000     -66.86020000
H      -44.58220000     -34.04890000     -66.30310000
H      -43.19540000     -31.65930000     -69.60640000
H      -46.83510000     -30.58220000     -67.51380000
H      -46.53080000     -32.65400000     -66.05420000
C      -45.22490000     -29.73870000     -69.56770000
H      -44.37000000     -29.64610000     -70.13900000
H      -45.36780000     -28.87680000     -68.84510000
C      -42.80140000     -34.01390000     -68.28280000
H      -42.02530000     -33.76580000     -69.05310000
H      -42.28870000     -34.22260000     -67.38220000
S      -46.80800000     -29.92560000     -70.47930000
S      -43.54470000     -35.68940000     -68.73070000
C      -46.77910000     -31.49470000     -71.41080000
H      -46.67430000     -32.37460000     -70.77560000
H      -47.77510000     -31.59360000     -71.89850000
C      -43.99020000     -35.72090000     -70.51460000
H      -44.03000000     -36.77610000     -70.83250000
H      -43.17090000     -35.21660000     -70.99890000
C      -45.30160000     -35.07860000     -70.93510000
H      -46.08800000     -35.53070000     -70.33160000
H      -45.29460000     -33.99260000     -70.67650000
C      -45.68350000     -31.59140000     -72.56990000
H      -44.71960000     -31.74730000     -72.12650000
H      -45.60740000     -30.71300000     -73.17990000
C      -45.92980000     -32.74320000     -73.57000000
C      -46.22640000     -32.35650000     -74.83290000
C      -45.72270000     -34.21080000     -73.43460000
H      -46.34120000     -31.31120000     -75.18900000
C      -45.79660000     -34.75600000     -74.74770000
C      -45.46540000     -35.19770000     -72.50070000
C      -45.44490000     -36.47870000     -73.03100000
S      -46.11500000     -33.61840000     -75.97750000
S      -45.61400000     -36.44340000     -74.76350000
H      -45.23430000     -37.44550000     -72.54700000
