40
Properties=species:S:1:pos:R:3 #=T CELL(abcABC):=T 1.889726e+02=T 90.00000=T Traj:=T positionsangstrom=T Step:=T 0=T Bead:=T pbc="F F F"
C      -44.83060000     -33.23510000     -67.05390000
C      -43.90800000     -33.01770000     -68.11320000
C      -44.12530000     -31.95250000     -69.02290000
C      -45.20990000     -31.08760000     -68.93710000
C      -46.03290000     -31.24430000     -67.79350000
C      -45.86370000     -32.27780000     -66.84020000
H      -44.70160000     -34.14630000     -66.50830000
H      -43.33460000     -31.86620000     -69.84770000
H      -46.83160000     -30.49800000     -67.58570000
H      -46.55230000     -32.52980000     -66.03220000
C      -45.42150000     -29.87080000     -69.78860000
H      -44.61830000     -29.77450000     -70.57980000
H      -45.31730000     -28.86610000     -69.30230000
C      -42.89830000     -34.04170000     -68.46110000
H      -42.41920000     -33.74790000     -69.44150000
H      -42.17150000     -34.09040000     -67.64080000
S      -46.96650000     -29.80460000     -70.66680000
S      -43.53640000     -35.75520000     -68.53160000
C      -46.82150000     -31.51680000     -71.57730000
H      -47.02450000     -32.38860000     -70.89070000
H      -47.69900000     -31.48850000     -72.17150000
C      -43.86290000     -35.79270000     -70.38500000
H      -44.12650000     -36.87010000     -70.49220000
H      -42.83820000     -35.78500000     -70.77280000
C      -45.03900000     -34.92780000     -70.94530000
H      -45.91730000     -35.29420000     -70.36790000
H      -44.84510000     -33.84230000     -70.74620000
C      -45.49430000     -31.81000000     -72.31190000
H      -44.85670000     -32.26690000     -71.56780000
H      -45.01780000     -30.83490000     -72.66990000
C      -45.64220000     -32.69360000     -73.46330000
C      -45.79030000     -32.22110000     -74.72630000
C      -45.58910000     -34.16600000     -73.36760000
H      -45.67100000     -31.18290000     -74.85740000
C      -45.86900000     -34.73840000     -74.67060000
C      -45.29980000     -35.17420000     -72.41100000
C      -45.41560000     -36.46840000     -72.90730000
S      -46.09320000     -33.49720000     -75.92210000
S      -45.74070000     -36.45710000     -74.65970000
H      -45.10930000     -37.38380000     -72.43320000
