40
Properties=species:S:1:pos:R:3 #=T CELL(abcABC):=T 1.889726e+02=T 90.00000=T Traj:=T positionsangstrom=T Step:=T 0=T Bead:=T pbc="F F F"
C      -45.19710000     -33.30000000     -67.25170000
C      -44.22460000     -33.00040000     -68.23280000
C      -44.37710000     -31.82640000     -69.02860000
C      -45.45190000     -30.95170000     -68.80960000
C      -46.36430000     -31.21400000     -67.80920000
C      -46.21620000     -32.36610000     -67.00010000
H      -44.93150000     -34.21120000     -66.71530000
H      -43.73800000     -31.48060000     -69.80400000
H      -47.15830000     -30.53910000     -67.57180000
H      -46.86860000     -32.48970000     -66.12790000
C      -45.48490000     -29.77630000     -69.74230000
H      -44.48880000     -29.62070000     -70.22080000
H      -45.69030000     -28.92580000     -69.04260000
C      -43.01220000     -33.86600000     -68.40510000
H      -42.62930000     -33.69180000     -69.43460000
H      -42.18980000     -33.75090000     -67.67710000
S      -46.96450000     -29.86490000     -70.84450000
S      -43.36540000     -35.75380000     -68.50940000
C      -46.78190000     -31.46050000     -71.74830000
H      -47.04510000     -32.25460000     -71.06410000
H      -47.53440000     -31.44920000     -72.65530000
C      -43.80970000     -35.91430000     -70.28300000
H      -44.17460000     -36.95310000     -70.27500000
H      -42.88040000     -35.93830000     -70.90370000
C      -44.85580000     -34.92270000     -70.86360000
H      -45.78810000     -35.05360000     -70.27980000
H      -44.51140000     -33.92230000     -70.58100000
C      -45.39670000     -31.75700000     -72.30070000
H      -44.81690000     -32.19250000     -71.44940000
H      -44.83030000     -30.91740000     -72.64390000
C      -45.52010000     -32.72870000     -73.41180000
C      -45.71450000     -32.28700000     -74.65500000
C      -45.34790000     -34.19320000     -73.38730000
H      -45.91370000     -31.26620000     -74.94750000
C      -45.71880000     -34.74950000     -74.60950000
C      -45.17230000     -35.19940000     -72.32390000
C      -45.33830000     -36.44940000     -72.86690000
S      -45.87880000     -33.54700000     -75.87730000
S      -45.75160000     -36.47930000     -74.57500000
H      -45.46680000     -37.30300000     -72.24650000
