40
Properties=species:S:1:pos:R:3 #=T CELL(abcABC):=T 1.889726e+02=T 90.00000=T Traj:=T positionsangstrom=T Step:=T 0=T Bead:=T pbc="F F F"
C      -45.52170000     -33.40710000     -67.52570000
C      -44.34300000     -32.94910000     -68.10000000
C      -44.32700000     -31.72530000     -68.78810000
C      -45.46620000     -30.93550000     -68.76200000
C      -46.64240000     -31.37320000     -68.08400000
C      -46.66190000     -32.62890000     -67.56020000
H      -45.52850000     -34.36790000     -67.06060000
H      -43.33930000     -31.38710000     -69.23430000
H      -47.54440000     -30.75430000     -68.06580000
H      -47.53330000     -33.08160000     -67.11190000
C      -45.62670000     -29.57000000     -69.46070000
H      -44.56890000     -29.36300000     -69.73760000
H      -46.06360000     -28.76040000     -68.85440000
C      -43.05470000     -33.78690000     -68.09420000
H      -42.30070000     -33.49060000     -68.83460000
H      -42.58970000     -33.68170000     -67.08820000
S      -46.64650000     -29.71190000     -71.01390000
S      -43.50950000     -35.58520000     -68.41170000
C      -46.59800000     -31.43740000     -71.68810000
H      -46.46960000     -32.17520000     -70.80310000
H      -47.52890000     -31.68380000     -72.22530000
C      -43.69270000     -35.57360000     -70.21070000
H      -43.70000000     -36.61930000     -70.56490000
H      -42.81480000     -34.98220000     -70.56920000
C      -44.94590000     -34.89770000     -70.79930000
H      -45.78450000     -35.28110000     -70.25770000
H      -44.96030000     -33.84030000     -70.62630000
C      -45.29730000     -31.72090000     -72.45990000
H      -44.51920000     -32.09790000     -71.78490000
H      -44.93480000     -30.80780000     -72.96930000
C      -45.56690000     -32.75230000     -73.51760000
C      -45.85080000     -32.52020000     -74.84000000
C      -45.36810000     -34.19080000     -73.35430000
H      -46.08210000     -31.48470000     -75.12430000
C      -45.50330000     -34.84510000     -74.62250000
C      -45.18320000     -35.13250000     -72.23900000
C      -45.28530000     -36.42020000     -72.72450000
S      -45.89430000     -33.84060000     -75.95160000
S      -45.53300000     -36.56830000     -74.40920000
H      -45.05680000     -37.30110000     -72.15430000
