40
Properties=species:S:1:pos:R:3 #=T CELL(abcABC):=T 1.889726e+02=T 90.00000=T Traj:=T positionsangstrom=T Step:=T 0=T Bead:=T pbc="F F F"
C      -41.69030000     -34.57570000     -69.75450000
C      -42.76250000     -35.49290000     -69.85710000
C      -43.95410000     -35.25300000     -69.11410000
C      -43.95930000     -34.16450000     -68.22470000
C      -42.80190000     -33.40490000     -68.07910000
C      -41.68380000     -33.60020000     -68.82100000
H      -40.76240000     -34.84800000     -70.34530000
H      -44.83500000     -35.89340000     -69.25670000
H      -42.82620000     -32.57560000     -67.29370000
H      -40.76180000     -33.04380000     -68.54820000
C      -45.19770000     -33.77820000     -67.44830000
H      -45.00400000     -32.96070000     -66.63910000
H      -45.51300000     -34.65020000     -66.84030000
C      -42.72950000     -36.47670000     -70.97280000
H      -41.80050000     -37.11420000     -70.87120000
H      -43.55120000     -37.16960000     -70.82480000
S      -46.69410000     -33.17740000     -68.44440000
S      -42.75910000     -35.83030000     -72.62140000
C      -45.79320000     -31.63930000     -68.95490000
H      -46.42470000     -30.74850000     -68.82570000
H      -44.94860000     -31.53430000     -68.32150000
C      -44.36250000     -35.05640000     -72.64290000
H      -44.84320000     -35.00590000     -71.71970000
H      -44.93070000     -35.64510000     -73.38410000
C      -44.21750000     -33.57510000     -73.14630000
H      -43.88090000     -33.01520000     -72.25900000
H      -43.51110000     -33.47300000     -73.93740000
C      -45.45450000     -31.48760000     -70.40530000
H      -44.76980000     -32.32380000     -70.61930000
H      -44.74610000     -30.62000000     -70.54420000
C      -46.53290000     -31.54330000     -71.49490000
C      -47.85940000     -31.29610000     -71.22950000
C      -46.39440000     -32.08820000     -72.84480000
H      -48.16170000     -30.90610000     -70.25240000
C      -47.61540000     -31.93940000     -73.55910000
C      -45.51740000     -32.98680000     -73.56190000
C      -45.93310000     -33.34760000     -74.82530000
S      -48.98300000     -31.41950000     -72.60180000
S      -47.52890000     -32.64080000     -75.23670000
H      -45.47340000     -33.97450000     -75.55210000
