40
Properties=species:S:1:pos:R:3 #=T CELL(abcABC):=T 1.889726e+02=T 90.00000=T Traj:=T positionsangstrom=T Step:=T 0=T Bead:=T pbc="F F F"
C      -41.62410000     -34.72990000     -69.59440000
C      -42.80440000     -35.47640000     -69.87240000
C      -43.93980000     -35.17430000     -69.09870000
C      -43.88360000     -34.10000000     -68.18240000
C      -42.72520000     -33.32380000     -68.05460000
C      -41.55550000     -33.66140000     -68.71490000
H      -40.75330000     -34.95090000     -70.28580000
H      -44.82500000     -35.72490000     -69.19970000
H      -42.76550000     -32.40570000     -67.37190000
H      -40.70090000     -32.91630000     -68.69460000
C      -45.12810000     -33.87190000     -67.37110000
H      -44.96320000     -33.26710000     -66.35370000
H      -45.64450000     -34.69880000     -67.09160000
C      -42.85190000     -36.59990000     -70.78960000
H      -41.87680000     -37.12230000     -70.71640000
H      -43.71510000     -37.24750000     -70.65390000
S      -46.46970000     -33.15490000     -68.45450000
S      -42.82700000     -35.98280000     -72.62930000
C      -45.94320000     -31.46570000     -69.02860000
H      -46.75670000     -30.81150000     -68.82250000
H      -45.06960000     -31.31940000     -68.32380000
C      -44.36290000     -34.92820000     -72.64510000
H      -44.92340000     -34.95640000     -71.75310000
H      -44.99610000     -35.41290000     -73.40510000
C      -44.10000000     -33.42700000     -73.02250000
H      -43.87130000     -32.91290000     -72.13570000
H      -43.25730000     -33.21900000     -73.74230000
C      -45.54040000     -31.59290000     -70.46580000
H      -44.90430000     -32.43850000     -70.58500000
H      -44.86350000     -30.75690000     -70.71420000
C      -46.67500000     -31.75740000     -71.48480000
C      -47.92500000     -31.18380000     -71.36060000
C      -46.58780000     -32.36070000     -72.85040000
H      -48.22390000     -30.77060000     -70.37990000
C      -47.76180000     -32.14480000     -73.55540000
C      -45.47740000     -32.95640000     -73.59740000
C      -45.85000000     -33.05610000     -74.93040000
S      -48.99800000     -31.26110000     -72.75290000
S      -47.54520000     -32.66440000     -75.18710000
H      -45.32390000     -33.47210000     -75.78550000
