40
Properties=species:S:1:pos:R:3 #=T CELL(abcABC):=T 1.889726e+02=T 90.00000=T Traj:=T positionsangstrom=T Step:=T 0=T Bead:=T pbc="F F F"
C      -41.63160000     -34.72310000     -69.65200000
C      -42.77310000     -35.44830000     -69.78460000
C      -43.91000000     -35.16070000     -69.02600000
C      -43.86700000     -34.05040000     -68.13650000
C      -42.68210000     -33.28790000     -67.98080000
C      -41.54520000     -33.67670000     -68.75710000
H      -40.74850000     -35.08170000     -70.20700000
H      -44.78810000     -35.72200000     -69.00800000
H      -42.65970000     -32.45020000     -67.30070000
H      -40.60420000     -33.15710000     -68.65220000
C      -45.12060000     -33.67440000     -67.36160000
H      -44.71110000     -32.86600000     -66.75140000
H      -45.46530000     -34.46430000     -66.76380000
C      -42.77570000     -36.56350000     -70.76930000
H      -41.84590000     -37.10500000     -70.62100000
H      -43.59120000     -37.33100000     -70.58720000
S      -46.60510000     -33.11610000     -68.31340000
S      -42.84090000     -35.95170000     -72.56010000
C      -45.83580000     -31.62050000     -69.13010000
H      -46.41600000     -30.67900000     -69.01050000
H      -44.84780000     -31.41940000     -68.58600000
C      -44.42130000     -34.97480000     -72.59590000
H      -44.95810000     -34.89660000     -71.59780000
H      -45.17470000     -35.51910000     -73.22910000
C      -44.19010000     -33.61140000     -73.20850000
H      -43.56180000     -32.96920000     -72.50180000
H      -43.48230000     -33.75100000     -74.14240000
C      -45.48540000     -31.69310000     -70.61990000
H      -44.83300000     -32.55910000     -70.81650000
H      -44.86820000     -30.80320000     -70.86550000
C      -46.61540000     -31.72720000     -71.59800000
C      -47.83840000     -31.16390000     -71.41640000
C      -46.54500000     -32.33970000     -72.92990000
H      -48.05260000     -30.67280000     -70.45320000
C      -47.68240000     -32.06490000     -73.62060000
C      -45.51300000     -32.98980000     -73.68610000
C      -45.93860000     -33.22380000     -74.94360000
S      -49.01370000     -31.25860000     -72.66900000
S      -47.56510000     -32.65080000     -75.23010000
H      -45.29590000     -33.50840000     -75.78420000
