40
Properties=species:S:1:pos:R:3 #=T CELL(abcABC):=T 1.889726e+02=T 90.00000=T Traj:=T positionsangstrom=T Step:=T 0=T Bead:=T pbc="F F F"
C      -41.62280000     -32.27790000     -72.69130000
C      -42.53370000     -33.22740000     -72.13450000
C      -43.41080000     -32.92710000     -71.08820000
C      -43.48450000     -31.57310000     -70.63490000
C      -42.66880000     -30.62680000     -71.24020000
C      -41.72900000     -30.95410000     -72.25270000
H      -41.05250000     -32.54030000     -73.57190000
H      -44.24840000     -33.60580000     -70.94260000
H      -42.77200000     -29.54820000     -70.94760000
H      -41.11200000     -30.14310000     -72.66640000
C      -44.48390000     -31.10530000     -69.72190000
H      -44.05560000     -30.53650000     -68.89320000
H      -45.05400000     -31.85590000     -69.23700000
C      -42.59220000     -34.56970000     -72.77360000
H      -41.62400000     -34.92220000     -73.10210000
H      -42.92490000     -35.31110000     -72.06430000
S      -45.90650000     -30.12640000     -70.49360000
S      -43.66790000     -34.60790000     -74.37040000
C      -46.19010000     -31.07950000     -71.94380000
H      -46.34430000     -30.35210000     -72.80960000
H      -45.23860000     -31.57920000     -72.19580000
C      -45.42300000     -33.86440000     -74.06850000
H      -45.75900000     -33.63490000     -75.13230000
H      -45.39810000     -32.82480000     -73.52370000
C      -46.45400000     -34.86610000     -73.43950000
H      -47.37730000     -34.33740000     -73.57610000
H      -46.48270000     -35.77650000     -74.07860000
C      -47.46240000     -31.90530000     -71.77760000
H      -47.85420000     -32.22920000     -72.71500000
H      -48.24910000     -31.26850000     -71.37060000
C      -47.34370000     -33.04410000     -70.69600000
C      -47.62490000     -32.74110000     -69.36390000
C      -46.89300000     -34.40240000     -70.78660000
H      -48.02080000     -31.74910000     -69.07330000
C      -47.07170000     -35.13120000     -69.66210000
C      -46.42060000     -35.20220000     -71.93270000
C      -46.15980000     -36.48980000     -71.58430000
S      -47.56200000     -34.11570000     -68.30850000
S      -46.51570000     -36.86150000     -69.90850000
H      -45.88180000     -37.32210000     -72.20330000
