40
Properties=species:S:1:pos:R:3 #=T CELL(abcABC):=T 1.889726e+02=T 90.00000=T Traj:=T positionsangstrom=T Step:=T 0=T Bead:=T pbc="F F F"
C      -45.79160000     -33.91600000     -73.68830000
C      -46.84640000     -33.01030000     -73.54890000
C      -47.89410000     -33.32190000     -72.60090000
C      -47.81820000     -34.47620000     -71.83140000
C      -46.65860000     -35.28020000     -71.99250000
C      -45.60280000     -35.01880000     -72.85830000
H      -45.08940000     -33.65900000     -74.39170000
H      -48.76960000     -32.67460000     -72.53580000
H      -46.50340000     -36.08260000     -71.26200000
H      -44.76560000     -35.64750000     -72.90010000
C      -48.92730000     -34.83750000     -70.89730000
H      -49.15870000     -35.89680000     -70.83110000
H      -49.80190000     -34.34650000     -71.24420000
C      -46.78630000     -31.70170000     -74.21320000
H      -46.44280000     -31.74600000     -75.19500000
H      -47.67980000     -31.15130000     -74.26590000
S      -48.70830000     -34.41250000     -69.02290000
S      -45.61540000     -30.49140000     -73.46430000
C      -46.84590000     -34.63780000     -68.66930000
H      -46.98640000     -34.76310000     -67.55020000
H      -46.54820000     -35.59300000     -69.14850000
C      -45.96780000     -30.70320000     -71.63500000
H      -46.56330000     -31.67430000     -71.57530000
H      -46.80660000     -30.01100000     -71.31590000
C      -44.79990000     -30.75330000     -70.71820000
H      -44.33340000     -29.83080000     -70.55250000
H      -45.27810000     -30.99600000     -69.72620000
C      -45.89360000     -33.45180000     -68.99240000
H      -45.87040000     -32.78630000     -68.09680000
H      -46.43280000     -32.87040000     -69.68110000
C      -44.53070000     -33.91200000     -69.47080000
C      -44.06870000     -35.21740000     -69.27120000
C      -43.58280000     -33.18160000     -70.38640000
H      -44.54280000     -36.10500000     -68.76700000
C      -42.44660000     -33.91040000     -70.72660000
C      -43.75410000     -31.86630000     -71.06550000
C      -42.75620000     -31.71080000     -72.01650000
S      -42.61060000     -35.58270000     -70.21490000
S      -41.67170000     -33.15540000     -72.09610000
H      -42.53460000     -30.92280000     -72.68100000
