40
Properties=species:S:1:pos:R:3 #=T CELL(abcABC):=T 1.889726e+02=T 90.00000=T Traj:=T positionsangstrom=T Step:=T 0=T Bead:=T pbc="F F F"
C      -41.30870000     -32.76870000     -71.75890000
C      -42.40360000     -33.65400000     -71.46300000
C      -43.48410000     -33.08670000     -70.81190000
C      -43.63640000     -31.68150000     -70.67940000
C      -42.62570000     -30.80230000     -71.06450000
C      -41.43390000     -31.39640000     -71.53360000
H      -40.39040000     -33.12620000     -72.10740000
H      -44.35230000     -33.71280000     -70.55770000
H      -42.67960000     -29.73620000     -70.99760000
H      -40.54410000     -30.84400000     -71.72690000
C      -44.84670000     -31.07380000     -69.86330000
H      -44.36720000     -30.59660000     -68.95800000
H      -45.59680000     -31.83100000     -69.55580000
C      -42.34310000     -35.16230000     -71.73610000
H      -41.28790000     -35.52630000     -71.77130000
H      -42.99820000     -35.58720000     -71.00500000
S      -45.83990000     -29.81520000     -70.77030000
S      -42.97700000     -35.45150000     -73.45620000
C      -46.39750000     -30.75960000     -72.23000000
H      -46.61960000     -30.02130000     -73.01670000
H      -45.57150000     -31.28820000     -72.69900000
C      -44.15470000     -34.08590000     -73.91150000
H      -43.98890000     -33.98680000     -74.92980000
H      -43.94930000     -33.10240000     -73.48910000
C      -45.73360000     -34.33500000     -73.66090000
H      -46.23970000     -33.43980000     -73.94560000
H      -46.08800000     -35.09980000     -74.37150000
C      -47.67380000     -31.57420000     -71.99930000
H      -48.01900000     -31.94580000     -73.02080000
H      -48.45380000     -30.81980000     -71.70270000
C      -47.61500000     -32.68680000     -71.00950000
C      -48.42640000     -32.67040000     -69.86170000
C      -46.91690000     -33.99810000     -71.14900000
H      -49.02230000     -31.84890000     -69.64220000
C      -47.40230000     -34.84890000     -70.12260000
C      -46.22910000     -34.75890000     -72.22590000
C      -45.92860000     -36.04790000     -71.79550000
S      -48.62430000     -34.19640000     -69.05200000
S      -46.71140000     -36.47730000     -70.21980000
H      -45.37580000     -36.85190000     -72.24020000
