40
Properties=species:S:1:pos:R:3 #=T CELL(abcABC):=T 1.889726e+02=T 90.00000=T Traj:=T positionsangstrom=T Step:=T 0=T Bead:=T pbc="F F F"
C      -41.40840000     -32.68560000     -71.88150000
C      -42.49710000     -33.51760000     -71.45320000
C      -43.52440000     -32.84770000     -70.77760000
C      -43.50520000     -31.51210000     -70.44050000
C      -42.45070000     -30.65990000     -70.91240000
C      -41.41530000     -31.32680000     -71.60470000
H      -40.56500000     -33.09970000     -72.40300000
H      -44.29270000     -33.46760000     -70.32890000
H      -42.35290000     -29.62260000     -70.58250000
H      -40.53160000     -30.90060000     -72.01710000
C      -44.70410000     -30.96560000     -69.63060000
H      -44.32310000     -30.32150000     -68.84600000
H      -45.29110000     -31.86950000     -69.28880000
C      -42.50210000     -34.96500000     -71.69520000
H      -41.49830000     -35.48700000     -71.68130000
H      -43.17870000     -35.52780000     -71.01390000
S      -45.80070000     -29.90140000     -70.68330000
S      -43.12000000     -35.41000000     -73.39890000
C      -46.00300000     -31.01050000     -72.11110000
H      -45.75790000     -30.43680000     -72.99080000
H      -45.26500000     -31.84230000     -72.04590000
C      -44.34510000     -33.99090000     -73.73790000
H      -44.14170000     -33.56880000     -74.75580000
H      -44.03550000     -33.24840000     -72.96310000
C      -45.77320000     -34.28590000     -73.57340000
H      -46.28070000     -33.29710000     -73.68530000
H      -46.23220000     -34.91120000     -74.36950000
C      -47.40540000     -31.63960000     -72.18560000
H      -47.63440000     -31.96390000     -73.17800000
H      -48.15300000     -30.88560000     -71.92510000
C      -47.64250000     -32.86650000     -71.29440000
C      -48.56090000     -32.73670000     -70.23420000
C      -47.03460000     -34.17030000     -71.30660000
H      -49.21320000     -31.93020000     -70.20970000
C      -47.47740000     -34.95940000     -70.21880000
C      -46.17240000     -34.87000000     -72.19590000
C      -45.91390000     -36.15870000     -71.77170000
S      -48.57210000     -34.12870000     -69.13790000
S      -46.78870000     -36.58600000     -70.26110000
H      -45.37380000     -36.90830000     -72.22870000
