40
Properties=species:S:1:pos:R:3 #=T CELL(abcABC):=T 1.889726e+02=T 90.00000=T Traj:=T positionsangstrom=T Step:=T 0=T Bead:=T pbc="F F F"
C      -47.12260000     -35.44170000     -74.28420000
C      -45.85720000     -34.93830000     -74.41030000
C      -44.79800000     -35.47370000     -73.67470000
C      -44.94370000     -36.60710000     -72.89310000
C      -46.23070000     -37.22090000     -72.81480000
C      -47.28940000     -36.58190000     -73.45250000
H      -47.91840000     -34.83660000     -74.65570000
H      -43.79490000     -35.05510000     -73.62680000
H      -46.32930000     -38.18190000     -72.40230000
H      -48.29720000     -36.93540000     -73.30350000
C      -43.76610000     -37.15080000     -72.17290000
H      -42.99900000     -37.55750000     -72.89520000
H      -44.04570000     -37.91540000     -71.51690000
C      -45.65710000     -33.72230000     -75.31810000
H      -45.17270000     -34.11370000     -76.29740000
H      -46.63790000     -33.32730000     -75.67320000
S      -42.82810000     -35.82310000     -71.24550000
S      -44.52450000     -32.41920000     -74.62840000
C      -44.12130000     -34.68340000     -70.49820000
H      -44.75150000     -34.27280000     -71.21590000
H      -44.83600000     -35.31470000     -69.89970000
C      -45.37360000     -32.27310000     -72.96410000
H      -45.63460000     -33.23370000     -72.52650000
H      -46.34260000     -31.81010000     -73.10340000
C      -44.56360000     -31.39720000     -71.95410000
H      -43.71430000     -31.93860000     -71.61540000
H      -44.20540000     -30.51350000     -72.51630000
C      -43.56810000     -33.69030000     -69.50920000
H      -42.83800000     -33.04660000     -70.04360000
H      -43.14680000     -34.16880000     -68.62260000
C      -44.75840000     -32.85710000     -68.92800000
C      -45.11380000     -33.10670000     -67.59440000
C      -45.40440000     -31.66540000     -69.46930000
H      -44.89540000     -33.95940000     -66.92290000
C      -46.24770000     -31.10510000     -68.56050000
C      -45.45380000     -31.09330000     -70.78160000
C      -46.40970000     -30.13390000     -70.83860000
S      -46.34620000     -31.87250000     -67.02620000
S      -47.20400000     -29.84600000     -69.29540000
H      -46.62370000     -29.55940000     -71.71560000
