40
Properties=species:S:1:pos:R:3 #=T CELL(abcABC):=T 1.889726e+02=T 90.00000=T Traj:=T positionsangstrom=T Step:=T 0=T Bead:=T pbc="F F F"
C      -41.62510000     -32.87690000     -71.72500000
C      -42.82990000     -33.49040000     -71.35630000
C      -43.77460000     -32.65460000     -70.66130000
C      -43.49190000     -31.40530000     -70.16500000
C      -42.26690000     -30.81370000     -70.63460000
C      -41.35370000     -31.58560000     -71.37670000
H      -40.95630000     -33.59440000     -72.16320000
H      -44.69570000     -33.14350000     -70.41940000
H      -41.96710000     -29.80570000     -70.42710000
H      -40.44300000     -31.07830000     -71.64200000
C      -44.56220000     -30.83350000     -69.32490000
H      -44.20710000     -30.17130000     -68.55230000
H      -45.00280000     -31.64590000     -68.68170000
C      -43.16120000     -35.00090000     -71.59900000
H      -42.37270000     -35.65150000     -71.16920000
H      -44.09730000     -35.33250000     -71.15910000
S      -45.91240000     -29.91030000     -70.10790000
S      -43.22620000     -35.33080000     -73.46040000
C      -45.94230000     -30.55400000     -71.89050000
H      -46.26320000     -29.66890000     -72.41300000
H      -44.95150000     -30.85260000     -72.27150000
C      -44.58140000     -34.10050000     -73.98050000
H      -44.33420000     -33.74580000     -74.98390000
H      -44.48410000     -33.23050000     -73.34870000
C      -46.06570000     -34.52520000     -74.01720000
H      -46.52260000     -33.58430000     -74.27680000
H      -46.26180000     -35.30420000     -74.74940000
C      -46.94690000     -31.64330000     -72.22810000
H      -46.67610000     -32.01390000     -73.23700000
H      -47.97520000     -31.11730000     -72.38510000
C      -47.18590000     -32.81650000     -71.31560000
C      -47.62090000     -32.53360000     -70.05580000
C      -46.98420000     -34.20300000     -71.58480000
H      -48.05580000     -31.63090000     -69.69620000
C      -47.22350000     -34.96470000     -70.44260000
C      -46.55290000     -35.03010000     -72.68490000
C      -46.58860000     -36.40980000     -72.36830000
S      -47.88590000     -34.00500000     -69.06530000
S      -47.05130000     -36.69060000     -70.70100000
H      -46.36890000     -37.31250000     -73.00030000
