40
Properties=species:S:1:pos:R:3 #=T CELL(abcABC):=T 1.889726e+02=T 90.00000=T Traj:=T positionsangstrom=T Step:=T 0=T Bead:=T pbc="F F F"
C      -46.79160000     -30.47490000     -72.91720000
C      -47.00720000     -30.78760000     -71.56580000
C      -47.74930000     -31.92490000     -71.23910000
C      -48.37700000     -32.71120000     -72.22890000
C      -48.19080000     -32.33360000     -73.57820000
C      -47.40730000     -31.25950000     -73.92000000
H      -46.06170000     -29.70300000     -73.16190000
H      -47.88580000     -32.22200000     -70.15260000
H      -48.53130000     -33.01910000     -74.38500000
H      -47.43380000     -30.80290000     -74.94810000
C      -49.34480000     -33.85270000     -71.97390000
H      -49.48970000     -34.39380000     -72.96890000
H      -50.23200000     -33.39200000     -71.73720000
C      -46.51480000     -29.92810000     -70.44110000
H      -47.12160000     -29.04040000     -70.38090000
H      -46.58660000     -30.52310000     -69.51350000
S      -48.94520000     -35.27070000     -70.69440000
S      -44.75630000     -29.31980000     -70.38630000
C      -47.26420000     -35.92000000     -71.18190000
H      -47.16910000     -36.85200000     -70.65280000
H      -47.30090000     -36.18020000     -72.29240000
C      -43.92420000     -30.79970000     -71.00450000
H      -42.84860000     -30.47480000     -71.18060000
H      -44.30120000     -30.93910000     -72.03710000
C      -44.20790000     -32.04660000     -70.13010000
H      -43.98200000     -31.84170000     -69.08520000
H      -45.24720000     -32.30300000     -70.20400000
C      -46.21550000     -34.84600000     -70.90030000
H      -46.14180000     -34.70330000     -69.81740000
H      -46.45080000     -33.91350000     -71.45440000
C      -44.83540000     -35.31670000     -71.31930000
C      -44.54940000     -36.59670000     -71.72940000
C      -43.63290000     -34.56600000     -71.02200000
H      -45.23830000     -37.29990000     -72.16170000
C      -42.55480000     -35.39110000     -71.12640000
C      -43.25540000     -33.19450000     -70.54650000
C      -41.89570000     -33.05340000     -70.46880000
S      -42.85030000     -36.90590000     -71.77480000
S      -41.04810000     -34.57900000     -70.78340000
H      -41.36120000     -32.09880000     -70.16530000
