40
Properties=species:S:1:pos:R:3 #=T CELL(abcABC):=T 1.889726e+02=T 90.00000=T Traj:=T positionsangstrom=T Step:=T 0=T Bead:=T pbc="F F F"
C      -47.09150000     -30.18270000     -72.85620000
C      -47.16300000     -30.61660000     -71.56500000
C      -47.87060000     -31.81070000     -71.22050000
C      -48.41650000     -32.59650000     -72.22740000
C      -48.13160000     -32.25620000     -73.53430000
C      -47.50730000     -31.03280000     -73.88770000
H      -46.71360000     -29.13590000     -73.07390000
H      -47.99950000     -32.13470000     -70.15480000
H      -48.55920000     -32.87400000     -74.28490000
H      -47.23540000     -30.89700000     -75.00660000
C      -49.26530000     -33.81930000     -71.97150000
H      -49.43930000     -34.37090000     -72.89610000
H      -50.32260000     -33.49010000     -71.72900000
C      -46.60660000     -29.67780000     -70.46040000
H      -46.96890000     -28.62720000     -70.52120000
H      -46.96340000     -29.99730000     -69.47790000
S      -48.88270000     -35.00200000     -70.61310000
S      -44.76920000     -29.44990000     -70.61010000
C      -47.34970000     -35.77800000     -71.17890000
H      -47.15200000     -36.69710000     -70.60460000
H      -47.50110000     -36.17440000     -72.18020000
C      -43.82070000     -31.05170000     -70.96230000
H      -42.80690000     -30.89580000     -70.64630000
H      -43.81580000     -31.30270000     -72.06500000
C      -44.23090000     -32.29720000     -70.18500000
H      -44.27930000     -31.97020000     -69.10230000
H      -45.26900000     -32.56090000     -70.40340000
C      -46.13690000     -34.79550000     -71.29740000
H      -46.10440000     -34.04250000     -70.46400000
H      -46.27770000     -34.22260000     -72.22440000
C      -44.78410000     -35.41820000     -71.27500000
C      -44.54810000     -36.73520000     -71.58010000
C      -43.56920000     -34.71590000     -70.91830000
H      -45.30940000     -37.41890000     -71.87170000
C      -42.45550000     -35.49420000     -71.10250000
C      -43.21900000     -33.41370000     -70.37080000
C      -41.84290000     -33.18090000     -70.27000000
S      -42.87760000     -37.10960000     -71.74700000
S      -40.94370000     -34.58230000     -70.81120000
H      -41.22780000     -32.25880000     -70.18160000
