40
Properties=species:S:1:pos:R:3 #=T CELL(abcABC):=T 1.889726e+02=T 90.00000=T Traj:=T positionsangstrom=T Step:=T 0=T Bead:=T pbc="F F F"
C      -41.11450000     -33.50380000     -69.55910000
C      -42.29770000     -34.28670000     -69.68330000
C      -43.46890000     -34.04010000     -68.95910000
C      -43.52920000     -32.91890000     -68.10530000
C      -42.41830000     -32.08440000     -68.02930000
C      -41.27320000     -32.33690000     -68.75830000
H      -40.24910000     -33.67270000     -70.17940000
H      -44.39770000     -34.71550000     -69.07870000
H      -42.39190000     -31.25120000     -67.37360000
H      -40.51870000     -31.57800000     -68.63110000
C      -44.76040000     -32.75230000     -67.26330000
H      -44.62890000     -31.74310000     -66.68080000
H      -45.02540000     -33.54670000     -66.51250000
C      -42.21240000     -35.59220000     -70.55350000
H      -41.20680000     -35.92870000     -70.35410000
H      -42.88960000     -36.36890000     -70.23810000
S      -46.30190000     -32.72340000     -68.26440000
S      -42.38130000     -35.36300000     -72.36970000
C      -45.78800000     -31.52860000     -69.60300000
H      -46.61770000     -30.84380000     -69.61580000
H      -44.84270000     -31.04550000     -69.28090000
C      -44.17870000     -35.04940000     -72.61170000
H      -44.60710000     -34.87370000     -71.62340000
H      -44.72000000     -35.92110000     -73.04610000
C      -44.49480000     -33.89980000     -73.72280000
H      -44.18410000     -32.89720000     -73.36350000
H      -43.94950000     -34.09740000     -74.70500000
C      -45.52310000     -32.17670000     -70.98420000
H      -44.99380000     -33.22740000     -70.90560000
H      -44.78390000     -31.50110000     -71.54650000
C      -46.79320000     -32.35200000     -71.83380000
C      -48.02700000     -31.90600000     -71.43000000
C      -46.90030000     -33.05900000     -73.09410000
H      -48.28620000     -31.31570000     -70.61710000
C      -48.16380000     -33.05250000     -73.55270000
C      -45.96550000     -33.76510000     -74.00330000
C      -46.64500000     -34.37700000     -75.02880000
S      -49.32330000     -32.26910000     -72.46280000
S      -48.36810000     -34.03680000     -75.00490000
H      -46.21750000     -34.88420000     -75.89530000
