40
Properties=species:S:1:pos:R:3 #=T CELL(abcABC):=T 1.889726e+02=T 90.00000=T Traj:=T positionsangstrom=T Step:=T 0=T Bead:=T pbc="F F F"
C      -41.26220000     -33.28410000     -69.84470000
C      -42.29590000     -34.23080000     -69.74640000
C      -43.47260000     -34.09110000     -68.93410000
C      -43.53900000     -32.95390000     -68.14140000
C      -42.45290000     -32.07350000     -68.09620000
C      -41.34230000     -32.20080000     -68.94370000
H      -40.40130000     -33.49520000     -70.34870000
H      -44.28190000     -34.78750000     -68.92400000
H      -42.54520000     -31.23540000     -67.43600000
H      -40.63370000     -31.41810000     -69.05460000
C      -44.73480000     -32.70100000     -67.22010000
H      -44.57190000     -31.78260000     -66.84990000
H      -44.97640000     -33.36750000     -66.40590000
C      -42.26660000     -35.48550000     -70.60380000
H      -41.47010000     -36.14680000     -70.25330000
H      -43.23320000     -36.02270000     -70.46420000
S      -46.34000000     -32.60540000     -68.25210000
S      -42.30540000     -35.28160000     -72.43220000
C      -45.77920000     -31.44390000     -69.51420000
H      -46.33490000     -30.48870000     -69.48000000
H      -44.80720000     -31.08990000     -69.23270000
C      -44.15420000     -35.09840000     -72.58680000
H      -44.50460000     -34.65960000     -71.68350000
H      -44.53480000     -36.09630000     -72.74470000
C      -44.44910000     -34.06610000     -73.76610000
H      -43.87410000     -33.15810000     -73.50970000
H      -44.03310000     -34.51440000     -74.63190000
C      -45.61590000     -32.06310000     -70.93080000
H      -44.99270000     -32.88740000     -70.72110000
H      -45.12800000     -31.26280000     -71.46930000
C      -46.85050000     -32.45110000     -71.66160000
C      -48.10030000     -32.00620000     -71.29950000
C      -46.87080000     -33.20080000     -72.90100000
H      -48.39220000     -31.36500000     -70.45240000
C      -48.13010000     -33.21640000     -73.48840000
C      -45.91260000     -33.84480000     -73.84020000
C      -46.51410000     -34.19430000     -75.00360000
S      -49.39960000     -32.54900000     -72.49130000
S      -48.25160000     -34.01520000     -75.02570000
H      -46.01940000     -34.65830000     -75.83780000
