40
Properties=species:S:1:pos:R:3 #=T CELL(abcABC):=T 1.889726e+02=T 90.00000=T Traj:=T positionsangstrom=T Step:=T 0=T Bead:=T pbc="F F F"
C      -41.38150000     -33.15650000     -71.97400000
C      -42.61490000     -33.80590000     -71.97570000
C      -43.71290000     -33.39250000     -71.11330000
C      -43.45170000     -32.31620000     -70.23470000
C      -42.16870000     -31.65650000     -70.26870000
C      -41.15710000     -32.14570000     -71.04180000
H      -40.54860000     -33.57830000     -72.53020000
H      -44.69160000     -33.85580000     -71.28710000
H      -42.01940000     -30.80140000     -69.68940000
H      -40.15000000     -31.71860000     -70.94550000
C      -44.55240000     -31.71540000     -69.32190000
H      -44.18090000     -31.42750000     -68.31520000
H      -45.36800000     -32.45870000     -69.18570000
C      -43.01720000     -34.87750000     -72.90270000
H      -42.19710000     -35.55180000     -73.24110000
H      -43.74550000     -35.48600000     -72.34050000
S      -45.19460000     -30.06810000     -69.98320000
S      -43.82750000     -34.40220000     -74.46610000
C      -46.08230000     -30.62030000     -71.41750000
H      -46.17310000     -29.82500000     -72.20880000
H      -45.50770000     -31.51550000     -71.75910000
C      -45.11680000     -33.10550000     -74.12010000
H      -45.17460000     -32.55660000     -75.06490000
H      -44.72410000     -32.57930000     -73.24310000
C      -46.54900000     -33.64660000     -73.75000000
H      -47.20620000     -32.85280000     -73.78030000
H      -46.93090000     -34.23260000     -74.53370000
C      -47.48860000     -31.23570000     -71.11910000
H      -47.91810000     -31.48200000     -72.09660000
H      -48.23110000     -30.62560000     -70.68040000
C      -47.38060000     -32.62810000     -70.51160000
C      -47.78410000     -32.84220000     -69.16000000
C      -47.07810000     -33.94920000     -71.13010000
H      -48.03230000     -32.10960000     -68.40380000
C      -47.19520000     -35.02540000     -70.26180000
C      -46.67180000     -34.43790000     -72.45900000
C      -46.56950000     -35.77990000     -72.54570000
S      -47.66110000     -34.53980000     -68.71310000
S      -46.82630000     -36.58780000     -71.01890000
H      -46.37680000     -36.33030000     -73.39690000
