40
Properties=species:S:1:pos:R:3 #=T CELL(abcABC):=T 1.889726e+02=T 90.00000=T Traj:=T positionsangstrom=T Step:=T 0=T Bead:=T pbc="F F F"
C      -41.61270000     -33.03760000     -72.47920000
C      -42.80230000     -33.67340000     -72.27250000
C      -43.60150000     -33.51480000     -71.15870000
C      -43.23160000     -32.55730000     -70.22380000
C      -42.06210000     -31.76730000     -70.51370000
C      -41.18380000     -32.01220000     -71.53280000
H      -41.04420000     -33.18010000     -73.40560000
H      -44.43730000     -34.19080000     -70.91180000
H      -41.79340000     -30.95530000     -69.86360000
H      -40.29860000     -31.35930000     -71.74950000
C      -44.09760000     -32.31210000     -68.99230000
H      -43.48160000     -32.09710000     -68.09650000
H      -44.69230000     -33.21400000     -68.76230000
C      -43.30020000     -34.70930000     -73.29010000
H      -42.50260000     -35.40260000     -73.64940000
H      -44.10970000     -35.26720000     -72.77490000
S      -45.24780000     -30.80870000     -69.28960000
S      -44.13590000     -34.05530000     -74.78680000
C      -45.68510000     -30.89870000     -71.08500000
H      -45.64670000     -29.88070000     -71.38680000
H      -45.03050000     -31.43790000     -71.65190000
C      -45.43400000     -33.02610000     -74.09190000
H      -45.54530000     -32.28820000     -74.95110000
H      -44.97710000     -32.57840000     -73.21380000
C      -46.74900000     -33.69980000     -73.84820000
H      -47.46850000     -32.83760000     -73.97380000
H      -47.11930000     -34.27980000     -74.76960000
C      -47.16210000     -31.32900000     -71.23020000
H      -47.46670000     -31.31890000     -72.34880000
H      -47.72160000     -30.50200000     -70.74470000
C      -47.44560000     -32.59520000     -70.58700000
C      -47.64670000     -32.63700000     -69.24240000
C      -47.17810000     -33.82130000     -71.22520000
H      -47.90800000     -31.68130000     -68.80180000
C      -47.19840000     -34.83810000     -70.26810000
C      -46.80980000     -34.36580000     -72.49850000
C      -46.55300000     -35.72010000     -72.45060000
S      -47.57690000     -34.26530000     -68.55640000
S      -46.68530000     -36.41080000     -70.86380000
H      -46.20320000     -36.23890000     -73.38050000
