40
Properties=species:S:1:pos:R:3 #=T CELL(abcABC):=T 1.889726e+02=T 90.00000=T Traj:=T positionsangstrom=T Step:=T 0=T Bead:=T pbc="F F F"
C      -41.76520000     -32.60070000     -72.78620000
C      -42.78760000     -33.54120000     -72.54920000
C      -43.34740000     -33.56380000     -71.26410000
C      -43.12930000     -32.61990000     -70.30720000
C      -42.12500000     -31.64460000     -70.55020000
C      -41.51410000     -31.58730000     -71.84400000
H      -41.21140000     -32.76570000     -73.74790000
H      -43.95450000     -34.39780000     -71.01180000
H      -42.12700000     -30.74190000     -69.95100000
H      -40.79960000     -30.80370000     -72.00610000
C      -44.06360000     -32.55630000     -69.12270000
H      -43.52480000     -32.58490000     -68.14720000
H      -44.93420000     -33.29710000     -69.16330000
C      -43.27740000     -34.65180000     -73.47660000
H      -42.42570000     -35.17920000     -73.94010000
H      -43.91960000     -35.38940000     -73.01960000
S      -44.92930000     -30.86230000     -69.10380000
S      -44.21020000     -34.07080000     -74.92620000
C      -45.43030000     -30.66030000     -70.82930000
H      -45.52640000     -29.58410000     -70.95790000
H      -44.70520000     -31.06080000     -71.56780000
C      -45.44060000     -32.90910000     -74.05540000
H      -45.71690000     -32.09080000     -74.69430000
H      -44.95520000     -32.49120000     -73.12650000
C      -46.69630000     -33.66080000     -73.70090000
H      -47.53590000     -32.89490000     -73.67110000
H      -46.91230000     -34.37680000     -74.46420000
C      -46.82470000     -31.25000000     -71.00690000
H      -47.16080000     -31.22830000     -72.06370000
H      -47.43230000     -30.43630000     -70.56050000
C      -47.06660000     -32.63070000     -70.40840000
C      -47.54770000     -32.79020000     -69.15570000
C      -46.97870000     -33.90020000     -71.11700000
H      -47.64680000     -32.06060000     -68.45200000
C      -47.08930000     -34.89780000     -70.14350000
C      -46.70790000     -34.45510000     -72.46810000
C      -46.75230000     -35.83870000     -72.44890000
S      -47.81310000     -34.41800000     -68.57300000
S      -47.15510000     -36.50180000     -70.82060000
H      -46.68260000     -36.39240000     -73.30760000
