40
Properties=species:S:1:pos:R:3 #=T CELL(abcABC):=T 1.889726e+02=T 90.00000=T Traj:=T positionsangstrom=T Step:=T 0=T Bead:=T pbc="F F F"
C      -47.19990000     -35.54230000     -74.48210000
C      -45.89910000     -34.94920000     -74.50810000
C      -44.88750000     -35.62910000     -73.76550000
C      -45.18520000     -36.59750000     -72.79970000
C      -46.57580000     -37.01190000     -72.67250000
C      -47.53720000     -36.52920000     -73.51930000
H      -48.00960000     -35.00290000     -74.94950000
H      -43.86540000     -35.25110000     -73.79180000
H      -46.80710000     -37.79200000     -71.84690000
H      -48.53860000     -36.91400000     -73.48870000
C      -44.20790000     -37.15340000     -71.78450000
H      -43.52150000     -37.96580000     -72.23510000
H      -44.74130000     -37.54850000     -70.93270000
C      -45.69910000     -33.75920000     -75.38990000
H      -45.33100000     -34.04140000     -76.45710000
H      -46.60830000     -33.26320000     -75.63450000
S      -42.97100000     -35.85570000     -71.18650000
S      -44.43600000     -32.50320000     -74.70220000
C      -44.16170000     -34.78640000     -70.23540000
H      -44.94910000     -34.38200000     -70.87510000
H      -44.79470000     -35.48400000     -69.63380000
C      -45.32280000     -31.75200000     -73.26760000
H      -46.01490000     -32.50670000     -72.90980000
H      -45.91870000     -30.89510000     -73.53030000
C      -44.41700000     -31.35900000     -72.05030000
H      -43.57450000     -31.97070000     -71.78480000
H      -43.87970000     -30.36330000     -72.30000000
C      -43.45390000     -33.64480000     -69.54170000
H      -42.82540000     -33.19900000     -70.28530000
H      -42.79170000     -34.13850000     -68.75840000
C      -44.50230000     -32.75140000     -68.83960000
C      -44.79380000     -32.87340000     -67.50420000
C      -45.34630000     -31.81950000     -69.53140000
H      -44.25640000     -33.46790000     -66.76340000
C      -46.34490000     -31.29550000     -68.63840000
C      -45.28420000     -31.09810000     -70.82710000
C      -46.17550000     -30.06290000     -70.79190000
S      -46.23600000     -31.98420000     -67.02170000
S      -47.12240000     -29.88360000     -69.29580000
H      -46.37610000     -29.38150000     -71.66900000
