40
Properties=species:S:1:pos:R:3 #=T CELL(abcABC):=T 1.889726e+02=T 90.00000=T Traj:=T positionsangstrom=T Step:=T 0=T Bead:=T pbc="F F F"
C      -41.45130000     -31.21810000     -69.85280000
C      -42.18510000     -32.43210000     -69.94580000
C      -43.38220000     -32.47110000     -69.15900000
C      -43.94200000     -31.30920000     -68.48120000
C      -43.14050000     -30.14250000     -68.48960000
C      -41.95970000     -30.09310000     -69.20370000
H      -40.45880000     -31.14020000     -70.27160000
H      -43.96130000     -33.44290000     -69.01380000
H      -43.54090000     -29.24370000     -68.06900000
H      -41.34020000     -29.17030000     -69.17930000
C      -45.21650000     -31.47230000     -67.75270000
H      -45.64490000     -30.47380000     -67.50070000
H      -45.06110000     -32.13170000     -66.96350000
C      -41.57410000     -33.72220000     -70.53480000
H      -40.49760000     -33.70060000     -70.35330000
H      -41.98870000     -34.61670000     -70.17210000
S      -46.56690000     -32.27670000     -68.72460000
S      -41.80900000     -34.05880000     -72.35200000
C      -46.75980000     -31.30230000     -70.25370000
H      -47.82290000     -31.11340000     -70.27140000
H      -46.17400000     -30.38040000     -70.00480000
C      -43.61810000     -34.53680000     -72.47500000
H      -44.18710000     -34.39330000     -71.52920000
H      -43.59290000     -35.60340000     -72.43340000
C      -44.42220000     -34.06770000     -73.65930000
H      -44.59980000     -32.95530000     -73.70620000
H      -43.80450000     -34.28090000     -74.57790000
C      -46.15120000     -32.09000000     -71.48000000
H      -45.15280000     -32.54980000     -71.26180000
H      -46.07360000     -31.44850000     -72.40950000
C      -47.07420000     -33.27710000     -71.86630000
C      -48.31410000     -33.38660000     -71.29640000
C      -46.89760000     -34.33200000     -72.91190000
H      -48.70460000     -32.88080000     -70.46030000
C      -47.98460000     -35.19060000     -72.99990000
C      -45.73810000     -34.75720000     -73.72320000
C      -46.03180000     -35.88240000     -74.37900000
S      -49.32960000     -34.63520000     -72.02910000
S      -47.70440000     -36.46870000     -74.25020000
H      -45.31960000     -36.33670000     -75.07130000
