40
Properties=species:S:1:pos:R:3 #=T CELL(abcABC):=T 1.889726e+02=T 90.00000=T Traj:=T positionsangstrom=T Step:=T 0=T Bead:=T pbc="F F F"
C      -41.56320000     -30.63100000     -69.86160000
C      -42.10340000     -31.96130000     -69.96580000
C      -43.39010000     -32.18030000     -69.36780000
C      -44.05250000     -31.10000000     -68.65480000
C      -43.37100000     -29.87220000     -68.43930000
C      -42.10700000     -29.68560000     -68.99970000
H      -40.55570000     -30.44240000     -70.29880000
H      -43.88570000     -33.08520000     -69.49880000
H      -43.80930000     -29.15720000     -67.74220000
H      -41.61170000     -28.71110000     -68.77910000
C      -45.42790000     -31.29320000     -68.03740000
H      -45.82750000     -30.28450000     -67.85570000
H      -45.51750000     -31.74500000     -67.04120000
C      -41.36060000     -33.00540000     -70.79340000
H      -40.34000000     -32.70540000     -70.98930000
H      -41.37440000     -33.98980000     -70.36320000
S      -46.54450000     -32.34220000     -69.17010000
S      -42.12270000     -33.01480000     -72.52670000
C      -46.82650000     -31.34690000     -70.67690000
H      -47.92640000     -30.90550000     -70.53290000
H      -46.23280000     -30.39540000     -70.68360000
C      -43.64370000     -34.09350000     -72.36530000
H      -44.31690000     -33.70700000     -71.63480000
H      -43.33250000     -35.11780000     -72.03650000
C      -44.41770000     -34.17920000     -73.70300000
H      -44.53210000     -33.20570000     -74.20870000
H      -43.76140000     -34.64340000     -74.45310000
C      -46.67440000     -32.21630000     -71.91220000
H      -45.57210000     -32.37890000     -72.13210000
H      -47.08040000     -31.80700000     -72.80110000
C      -47.27960000     -33.62120000     -71.84830000
C      -48.50230000     -33.82660000     -71.30190000
C      -46.87360000     -34.68380000     -72.75990000
H      -49.09320000     -33.25380000     -70.66270000
C      -47.79270000     -35.70900000     -72.79020000
C      -45.65240000     -35.00640000     -73.55330000
C      -45.76470000     -36.25850000     -74.08100000
S      -49.19600000     -35.40090000     -71.74970000
S      -47.12740000     -37.17990000     -73.56400000
H      -45.05020000     -36.54390000     -74.81920000
