40
Properties=species:S:1:pos:R:3 #=T CELL(abcABC):=T 1.889726e+02=T 90.00000=T Traj:=T positionsangstrom=T Step:=T 0=T Bead:=T pbc="F F F"
C      -41.58730000     -30.41640000     -69.77100000
C      -42.23410000     -31.60300000     -70.16930000
C      -43.58900000     -31.80140000     -69.62980000
C      -44.18490000     -30.90590000     -68.72880000
C      -43.51020000     -29.74940000     -68.32490000
C      -42.24510000     -29.56780000     -68.90510000
H      -40.66110000     -30.17620000     -70.25200000
H      -44.13060000     -32.68270000     -69.81480000
H      -44.01980000     -28.97450000     -67.78300000
H      -41.73450000     -28.65600000     -68.59540000
C      -45.53640000     -31.31510000     -68.16860000
H      -46.15020000     -30.51530000     -67.90510000
H      -45.26100000     -31.89540000     -67.23820000
C      -41.53910000     -32.71980000     -71.00870000
H      -40.45300000     -32.58350000     -71.08610000
H      -41.81180000     -33.73180000     -70.49860000
S      -46.46640000     -32.58270000     -69.13770000
S      -42.24230000     -32.79750000     -72.74550000
C      -46.67190000     -31.51220000     -70.66790000
H      -47.53510000     -30.95690000     -70.55280000
H      -45.82060000     -30.85620000     -70.69310000
C      -43.62500000     -33.97230000     -72.43750000
H      -44.26940000     -33.60640000     -71.58680000
H      -43.12560000     -34.85840000     -72.16270000
C      -44.44400000     -34.16460000     -73.70010000
H      -44.75530000     -33.13860000     -73.95560000
H      -43.85910000     -34.53980000     -74.58010000
C      -46.74630000     -32.25790000     -72.06920000
H      -45.68950000     -32.28420000     -72.39430000
H      -47.30930000     -31.61380000     -72.81010000
C      -47.35140000     -33.66930000     -72.06730000
C      -48.62920000     -33.86400000     -71.62190000
C      -46.73810000     -34.83820000     -72.58450000
H      -49.18130000     -33.21250000     -70.99370000
C      -47.55030000     -35.93250000     -72.43950000
C      -45.59340000     -35.13920000     -73.41590000
C      -45.58130000     -36.45300000     -73.91170000
S      -48.99640000     -35.56800000     -71.54460000
S      -47.05170000     -37.31660000     -73.36160000
H      -44.89180000     -36.78840000     -74.58290000
