40
Properties=species:S:1:pos:R:3 #=T CELL(abcABC):=T 1.889726e+02=T 90.00000=T Traj:=T positionsangstrom=T Step:=T 0=T Bead:=T pbc="F F F"
C      -41.66020000     -30.05730000     -69.72530000
C      -42.16120000     -31.31070000     -70.20630000
C      -43.41460000     -31.77030000     -69.67120000
C      -44.21310000     -31.02060000     -68.74850000
C      -43.73340000     -29.78700000     -68.33090000
C      -42.49160000     -29.35160000     -68.82650000
H      -40.74290000     -29.51060000     -69.99540000
H      -43.81910000     -32.73860000     -69.90600000
H      -44.32990000     -29.14880000     -67.65060000
H      -42.08850000     -28.43150000     -68.45710000
C      -45.54770000     -31.49020000     -68.24020000
H      -46.27330000     -30.63860000     -68.02150000
H      -45.31920000     -32.00850000     -67.29190000
C      -41.46960000     -32.18490000     -71.33110000
H      -40.48650000     -31.83750000     -71.45550000
H      -41.29230000     -33.17890000     -70.93980000
S      -46.45070000     -32.64520000     -69.38330000
S      -42.37880000     -32.50670000     -72.89510000
C      -46.99840000     -31.62190000     -70.76090000
H      -48.08990000     -31.37250000     -70.62770000
H      -46.45950000     -30.62740000     -70.85100000
C      -43.53940000     -33.93840000     -72.56170000
H      -44.12000000     -33.83550000     -71.65800000
H      -42.81570000     -34.73650000     -72.33180000
C      -44.43740000     -34.27250000     -73.75830000
H      -44.83970000     -33.32610000     -74.08490000
H      -43.77730000     -34.69890000     -74.48070000
C      -46.67860000     -32.41510000     -72.04810000
H      -45.64100000     -32.47840000     -72.24710000
H      -47.13150000     -31.84890000     -72.84040000
C      -47.26930000     -33.75840000     -71.92230000
C      -48.40700000     -34.06800000     -71.20580000
C      -46.77770000     -34.88830000     -72.65260000
H      -48.84520000     -33.24180000     -70.59560000
C      -47.61940000     -36.01330000     -72.50700000
C      -45.59260000     -35.21900000     -73.40970000
C      -45.47520000     -36.61490000     -73.62420000
S      -48.99610000     -35.65960000     -71.50770000
S      -46.88050000     -37.50190000     -73.03800000
H      -44.66150000     -37.05050000     -74.03780000
