40
Properties=species:S:1:pos:R:3 #=T CELL(abcABC):=T 1.889726e+02=T 90.00000=T Traj:=T positionsangstrom=T Step:=T 0=T Bead:=T pbc="F F F"
C      -41.59500000     -33.20820000     -72.54870000
C      -42.84600000     -33.82280000     -72.26150000
C      -43.57130000     -33.30940000     -71.17400000
C      -43.02130000     -32.32750000     -70.30910000
C      -41.68780000     -31.97210000     -70.45380000
C      -41.04920000     -32.32780000     -71.63380000
H      -41.16790000     -33.39030000     -73.51110000
H      -44.58870000     -33.70990000     -71.11070000
H      -41.14720000     -31.31920000     -69.85700000
H      -40.04720000     -31.99500000     -71.92520000
C      -43.72480000     -32.02310000     -68.97940000
H      -43.03010000     -31.83970000     -68.13590000
H      -44.36340000     -32.84050000     -68.85150000
C      -43.41980000     -34.85210000     -73.16850000
H      -42.66810000     -35.44470000     -73.62480000
H      -44.07790000     -35.56320000     -72.55680000
S      -44.72280000     -30.39340000     -69.04680000
S      -44.36840000     -34.03460000     -74.55430000
C      -45.85330000     -30.51470000     -70.57420000
H      -46.14600000     -29.49360000     -70.73970000
H      -45.35890000     -30.91110000     -71.49370000
C      -45.37790000     -32.55520000     -73.89690000
H      -45.19640000     -31.82300000     -74.70140000
H      -44.91630000     -32.24570000     -72.94740000
C      -46.88150000     -32.86370000     -73.59270000
H      -47.31910000     -31.90590000     -73.23280000
H      -47.35290000     -33.14910000     -74.53940000
C      -47.19610000     -31.30820000     -70.50900000
H      -47.62990000     -31.32620000     -71.55860000
H      -47.81480000     -30.74760000     -69.79120000
C      -47.14950000     -32.82910000     -70.17600000
C      -47.46380000     -33.32850000     -68.91420000
C      -47.04960000     -33.91350000     -71.14490000
H      -47.72930000     -32.69140000     -68.02270000
C      -47.20000000     -35.16470000     -70.61710000
C      -47.03500000     -33.98340000     -72.58560000
C      -47.20580000     -35.28840000     -73.01910000
S      -47.42410000     -35.05450000     -68.82590000
S      -47.28090000     -36.48970000     -71.72590000
H      -47.18660000     -35.55960000     -74.01980000
