40
Properties=species:S:1:pos:R:3 #=T CELL(abcABC):=T 1.889726e+02=T 90.00000=T Traj:=T positionsangstrom=T Step:=T 0=T Bead:=T pbc="F F F"
C      -41.54870000     -33.23020000     -72.37180000
C      -42.78650000     -33.87070000     -72.16840000
C      -43.52830000     -33.45930000     -71.02660000
C      -43.04060000     -32.50870000     -70.12040000
C      -41.87620000     -31.80310000     -70.42180000
C      -41.14430000     -32.17930000     -71.49430000
H      -40.84980000     -33.38720000     -73.17620000
H      -44.48230000     -33.90400000     -70.82080000
H      -41.59470000     -31.05810000     -69.79190000
H      -40.15770000     -31.76080000     -71.76870000
C      -43.99660000     -32.08800000     -69.00640000
H      -43.37030000     -31.91670000     -68.00860000
H      -44.78800000     -32.87440000     -68.85530000
C      -43.44220000     -34.74630000     -73.29360000
H      -42.67710000     -35.39430000     -73.73200000
H      -44.20980000     -35.37290000     -72.80880000
S      -44.84430000     -30.49860000     -69.18750000
S      -44.26650000     -33.81260000     -74.69010000
C      -45.82590000     -30.65570000     -70.75340000
H      -46.04280000     -29.63150000     -71.09940000
H      -45.22830000     -31.07430000     -71.50880000
C      -45.23540000     -32.53190000     -73.74410000
H      -45.21100000     -31.59990000     -74.36060000
H      -44.65120000     -32.43750000     -72.80590000
C      -46.71530000     -32.86310000     -73.60510000
H      -47.28390000     -31.95270000     -73.30080000
H      -47.16010000     -33.22280000     -74.51480000
C      -47.12280000     -31.34030000     -70.45840000
H      -47.82960000     -31.10330000     -71.23770000
H      -47.67660000     -30.88980000     -69.61730000
C      -47.05450000     -32.84590000     -70.18620000
C      -47.09930000     -33.30290000     -68.85370000
C      -47.16200000     -33.92020000     -71.14600000
H      -47.14010000     -32.68520000     -67.98790000
C      -47.41480000     -35.17780000     -70.62700000
C      -46.96690000     -33.99460000     -72.58750000
C      -47.09330000     -35.33400000     -72.98080000
S      -47.35010000     -35.06880000     -68.83230000
S      -47.45160000     -36.49790000     -71.74870000
H      -46.95580000     -35.59990000     -73.98960000
