40
Properties=species:S:1:pos:R:3 #=T CELL(abcABC):=T 1.889726e+02=T 90.00000=T Traj:=T positionsangstrom=T Step:=T 0=T Bead:=T pbc="F F F"
C      -41.72040000     -32.95360000     -72.48860000
C      -42.90100000     -33.78240000     -72.23660000
C      -43.61880000     -33.52020000     -71.05930000
C      -43.14870000     -32.54410000     -70.15500000
C      -41.95120000     -31.87230000     -70.35070000
C      -41.29880000     -32.01870000     -71.56380000
H      -41.07150000     -32.98270000     -73.43760000
H      -44.51850000     -33.96880000     -70.70850000
H      -41.68890000     -31.10160000     -69.64080000
H      -40.49610000     -31.36990000     -71.93290000
C      -43.98630000     -32.24580000     -68.97140000
H      -43.35050000     -32.33050000     -68.16480000
H      -44.70280000     -32.96330000     -68.80350000
C      -43.33070000     -34.72780000     -73.26020000
H      -42.50690000     -35.28930000     -73.74860000
H      -44.09340000     -35.39530000     -72.98660000
S      -44.75860000     -30.54690000     -69.14610000
S      -44.09170000     -33.65430000     -74.69040000
C      -45.72680000     -30.81670000     -70.63830000
H      -45.73150000     -29.83280000     -71.13820000
H      -45.16380000     -31.42190000     -71.37970000
C      -45.19020000     -32.51100000     -73.84030000
H      -45.15580000     -31.58480000     -74.35400000
H      -44.79680000     -32.16920000     -72.89010000
C      -46.67220000     -32.94920000     -73.58900000
H      -47.14770000     -32.03510000     -73.37770000
H      -46.96880000     -33.18890000     -74.62300000
C      -47.11210000     -31.35860000     -70.46380000
H      -47.65990000     -31.13350000     -71.35490000
H      -47.56920000     -30.71620000     -69.65760000
C      -47.16990000     -32.87400000     -70.15920000
C      -47.24320000     -33.34890000     -68.83660000
C      -47.11180000     -33.92470000     -71.14570000
H      -47.23480000     -32.88090000     -67.91350000
C      -47.18820000     -35.21180000     -70.57730000
C      -47.04790000     -34.02080000     -72.61390000
C      -47.24180000     -35.32520000     -73.02180000
S      -47.34910000     -35.07970000     -68.84720000
S      -47.49270000     -36.53550000     -71.70270000
H      -47.23520000     -35.62290000     -74.07010000
