40
Properties=species:S:1:pos:R:3 #=T CELL(abcABC):=T 1.889726e+02=T 90.00000=T Traj:=T positionsangstrom=T Step:=T 0=T Bead:=T pbc="F F F"
C      -42.78230000     -32.49900000     -73.77120000
C      -42.09620000     -32.66610000     -72.50920000
C      -42.50850000     -31.85130000     -71.46670000
C      -43.30970000     -30.72480000     -71.62630000
C      -43.84740000     -30.46880000     -72.93290000
C      -43.68540000     -31.48540000     -73.93550000
H      -42.56700000     -33.20970000     -74.55950000
H      -42.19400000     -32.03890000     -70.44690000
H      -44.46170000     -29.58400000     -73.03750000
H      -44.03420000     -31.42400000     -74.92530000
C      -43.59860000     -29.79600000     -70.56150000
H      -43.24020000     -28.77590000     -70.86500000
H      -43.05170000     -30.06080000     -69.65200000
C      -41.18440000     -33.81950000     -72.24650000
H      -40.34680000     -33.68710000     -72.99300000
H      -40.83770000     -33.80940000     -71.24210000
S      -45.39700000     -29.70580000     -70.04190000
S      -42.04180000     -35.45220000     -72.50520000
C      -46.07620000     -31.41560000     -69.91520000
H      -45.40770000     -32.06440000     -69.40750000
H      -47.01790000     -31.18180000     -69.40120000
C      -43.26170000     -35.46860000     -71.06720000
H      -42.84090000     -35.16480000     -70.09830000
H      -43.57250000     -36.53390000     -70.96750000
C      -44.55560000     -34.56950000     -71.34870000
H      -44.45430000     -33.62310000     -70.85050000
H      -44.55300000     -34.35380000     -72.39260000
C      -46.56000000     -32.00910000     -71.31180000
H      -45.76480000     -32.31850000     -72.06570000
H      -47.03160000     -31.11560000     -71.75860000
C      -47.57930000     -33.10850000     -71.26880000
C      -48.90330000     -32.91850000     -71.05660000
C      -47.19830000     -34.47890000     -70.98620000
H      -49.42500000     -31.93610000     -71.03220000
C      -48.28530000     -35.27450000     -70.60140000
C      -45.86030000     -35.16210000     -70.97260000
C      -46.05770000     -36.46020000     -70.51640000
S      -49.71050000     -34.38080000     -70.47700000
S      -47.75060000     -36.89480000     -70.32180000
H      -45.39220000     -37.27070000     -70.37910000
