40
Properties=species:S:1:pos:R:3 #=T CELL(abcABC):=T 1.889726e+02=T 90.00000=T Traj:=T positionsangstrom=T Step:=T 0=T Bead:=T pbc="F F F"
C      -41.85400000     -33.23740000     -72.96380000
C      -43.05990000     -33.91920000     -72.63730000
C      -43.65490000     -33.92760000     -71.36910000
C      -42.97210000     -33.17200000     -70.32280000
C      -41.74800000     -32.57000000     -70.62500000
C      -41.25240000     -32.52540000     -71.94880000
H      -41.37180000     -33.40110000     -73.91780000
H      -44.61150000     -34.43100000     -71.13940000
H      -41.16130000     -31.99160000     -69.87730000
H      -40.26220000     -32.09680000     -72.08620000
C      -43.55920000     -32.99610000     -69.03090000
H      -42.86440000     -33.16130000     -68.19720000
H      -44.50070000     -33.62420000     -68.89620000
C      -43.65250000     -34.76710000     -73.61440000
H      -42.92760000     -35.23060000     -74.21530000
H      -44.30280000     -35.58540000     -73.18020000
S      -43.97750000     -31.17970000     -68.85520000
S      -44.65050000     -33.78090000     -74.92850000
C      -44.96490000     -30.86110000     -70.33920000
H      -44.71160000     -29.87070000     -70.63380000
H      -44.64020000     -31.52280000     -71.06010000
C      -45.42900000     -32.37840000     -73.97410000
H      -45.42480000     -31.61960000     -74.78680000
H      -44.68850000     -32.13960000     -73.13910000
C      -46.86260000     -32.57210000     -73.43270000
H      -47.03150000     -31.54870000     -73.01420000
H      -47.59450000     -32.77250000     -74.25240000
C      -46.44710000     -31.02230000     -70.23330000
H      -46.95420000     -30.57900000     -71.04480000
H      -46.75580000     -30.41310000     -69.39590000
C      -46.96990000     -32.46490000     -70.05050000
C      -47.25340000     -32.92480000     -68.76190000
C      -47.14490000     -33.52850000     -70.98960000
H      -47.28410000     -32.34250000     -67.85010000
C      -47.51540000     -34.77110000     -70.41110000
C      -47.04520000     -33.67370000     -72.43110000
C      -47.30070000     -34.97810000     -72.82950000
S      -47.86140000     -34.63210000     -68.64810000
S      -47.65110000     -36.06410000     -71.57240000
H      -47.34090000     -35.35130000     -73.82310000
