40
Properties=species:S:1:pos:R:3 #=T CELL(abcABC):=T 1.889726e+02=T 90.00000=T Traj:=T positionsangstrom=T Step:=T 0=T Bead:=T pbc="F F F"
C      -45.08750000     -34.01470000     -68.72530000
C      -46.35280000     -33.42630000     -68.88460000
C      -47.37860000     -34.24190000     -69.38750000
C      -47.12990000     -35.54200000     -69.89090000
C      -45.85400000     -36.08550000     -69.78020000
C      -44.88280000     -35.32570000     -69.15150000
H      -44.26300000     -33.45160000     -68.31850000
H      -48.38340000     -33.81960000     -69.38970000
H      -45.74240000     -37.10340000     -70.06710000
H      -43.92960000     -35.69630000     -69.11990000
C      -48.27040000     -36.29090000     -70.51460000
H      -49.15600000     -36.12610000     -69.86650000
H      -47.95780000     -37.32690000     -70.56710000
C      -46.70480000     -32.01910000     -68.58420000
H      -47.61930000     -31.63610000     -69.03840000
H      -46.97500000     -31.99820000     -67.48950000
S      -48.67750000     -35.72100000     -72.24940000
S      -45.32450000     -30.88370000     -68.70220000
C      -47.07180000     -35.29300000     -73.12460000
H      -46.25160000     -35.95060000     -72.84470000
H      -47.22160000     -35.42520000     -74.24860000
C      -45.65580000     -29.95780000     -70.21830000
H      -44.76750000     -29.30210000     -70.39300000
H      -46.58460000     -29.33410000     -70.10130000
C      -45.76070000     -30.86080000     -71.47240000
H      -46.46240000     -31.68860000     -71.24290000
H      -46.20380000     -30.38710000     -72.33590000
C      -46.63720000     -33.83320000     -72.79620000
H      -46.56990000     -33.72830000     -71.67820000
H      -47.29790000     -33.03910000     -73.10680000
C      -45.16620000     -33.65590000     -73.25480000
C      -44.42820000     -34.61200000     -73.95310000
C      -44.24750000     -32.66570000     -72.66950000
H      -44.81290000     -35.37470000     -74.61920000
C      -42.94980000     -32.89110000     -73.00320000
C      -44.43950000     -31.45220000     -71.82160000
C      -43.20600000     -30.90010000     -71.56730000
S      -42.68380000     -34.27990000     -74.02480000
S      -41.85120000     -31.80510000     -72.18570000
H      -43.09850000     -29.92060000     -70.99670000
