40
Properties=species:S:1:pos:R:3 #=T CELL(abcABC):=T 1.889726e+02=T 90.00000=T Traj:=T positionsangstrom=T Step:=T 0=T Bead:=T pbc="F F F"
C      -41.92450000     -34.27810000     -72.92940000
C      -43.28900000     -34.29090000     -72.57540000
C      -43.67170000     -33.81710000     -71.32720000
C      -42.80230000     -33.33220000     -70.39080000
C      -41.42730000     -33.32200000     -70.69710000
C      -40.98370000     -33.84530000     -71.91810000
H      -41.55750000     -34.37650000     -73.96050000
H      -44.69510000     -34.04760000     -70.99850000
H      -40.73370000     -32.95210000     -69.86840000
H      -39.94400000     -34.06810000     -72.19230000
C      -43.39990000     -32.71160000     -69.13380000
H      -42.74900000     -32.75180000     -68.33050000
H      -44.26230000     -33.41390000     -68.87460000
C      -44.36640000     -34.82490000     -73.55380000
H      -44.14830000     -35.78370000     -74.06450000
H      -45.25240000     -35.13970000     -72.90770000
S      -43.78350000     -30.90210000     -69.21370000
S      -44.88160000     -33.69720000     -74.88550000
C      -44.89230000     -30.74660000     -70.73370000
H      -44.70370000     -29.74610000     -71.15890000
H      -44.55100000     -31.46200000     -71.42350000
C      -45.72630000     -32.29030000     -73.93070000
H      -45.63420000     -31.45080000     -74.55080000
H      -45.09550000     -32.15390000     -73.14160000
C      -47.19520000     -32.58710000     -73.46310000
H      -47.53780000     -31.64880000     -73.10680000
H      -47.78690000     -32.78920000     -74.33430000
C      -46.40070000     -30.88470000     -70.48380000
H      -46.94830000     -30.71250000     -71.39170000
H      -46.64380000     -30.13510000     -69.71110000
C      -46.74910000     -32.27950000     -70.05480000
C      -46.67470000     -32.73260000     -68.73930000
C      -47.13460000     -33.33920000     -70.99310000
H      -46.24680000     -32.14500000     -67.95550000
C      -47.47650000     -34.50200000     -70.25810000
C      -47.32650000     -33.55950000     -72.38650000
C      -47.72100000     -34.85490000     -72.68800000
S      -47.39610000     -34.35020000     -68.51850000
S      -47.84520000     -35.91820000     -71.24110000
H      -47.71410000     -35.26550000     -73.68740000
