40
Properties=species:S:1:pos:R:3 #=T CELL(abcABC):=T 1.889726e+02=T 90.00000=T Traj:=T positionsangstrom=T Step:=T 0=T Bead:=T pbc="F F F"
C      -42.01250000     -34.24930000     -72.88780000
C      -43.38560000     -34.30860000     -72.56180000
C      -43.76280000     -33.84020000     -71.30380000
C      -42.85110000     -33.33480000     -70.32530000
C      -41.50560000     -33.42280000     -70.59000000
C      -41.09510000     -33.85600000     -71.87400000
H      -41.66520000     -34.61830000     -73.86630000
H      -44.81200000     -33.70000000     -71.09650000
H      -40.76940000     -32.93550000     -69.85920000
H      -40.01490000     -33.83960000     -72.14980000
C      -43.27750000     -32.66990000     -69.09830000
H      -42.46200000     -32.67200000     -68.38070000
H      -44.25210000     -33.14370000     -68.68020000
C      -44.34760000     -34.88920000     -73.56490000
H      -43.87530000     -35.68160000     -74.13160000
H      -45.15480000     -35.26450000     -72.99520000
S      -43.59940000     -30.87320000     -69.50260000
S      -45.04190000     -33.74660000     -74.85250000
C      -44.78920000     -30.85650000     -70.85410000
H      -44.56140000     -29.91740000     -71.36360000
H      -44.48950000     -31.58930000     -71.58010000
C      -45.80900000     -32.22950000     -74.02390000
H      -45.86290000     -31.34020000     -74.72470000
H      -45.15240000     -31.92790000     -73.19650000
C      -47.19950000     -32.50880000     -73.44780000
H      -47.57820000     -31.61580000     -72.87720000
H      -47.88870000     -32.69420000     -74.29390000
C      -46.31110000     -30.89080000     -70.51640000
H      -46.93180000     -30.50570000     -71.39080000
H      -46.53210000     -30.18560000     -69.78880000
C      -46.77130000     -32.29980000     -70.06420000
C      -46.89890000     -32.63170000     -68.72590000
C      -47.08450000     -33.43160000     -70.89650000
H      -46.64100000     -31.96500000     -67.95960000
C      -47.37850000     -34.59580000     -70.15470000
C      -47.26090000     -33.58710000     -72.36570000
C      -47.85360000     -34.83120000     -72.61590000
S      -47.11350000     -34.34190000     -68.45160000
S      -47.97390000     -35.85570000     -71.18720000
H      -48.06250000     -35.24370000     -73.61850000
