40
Properties=species:S:1:pos:R:3 #=T CELL(abcABC):=T 1.889726e+02=T 90.00000=T Traj:=T positionsangstrom=T Step:=T 0=T Bead:=T pbc="F F F"
C      -42.28340000     -34.58730000     -73.19240000
C      -43.50430000     -34.73890000     -72.51710000
C      -43.70460000     -34.01630000     -71.36050000
C      -42.68160000     -33.20660000     -70.72420000
C      -41.43650000     -33.22560000     -71.41310000
C      -41.24750000     -33.87530000     -72.59020000
H      -42.19270000     -35.03190000     -74.16900000
H      -44.67490000     -33.90090000     -70.88560000
H      -40.60180000     -32.54650000     -71.12010000
H      -40.31390000     -33.82300000     -73.16960000
C      -42.88160000     -32.56450000     -69.36270000
H      -41.91610000     -32.45540000     -68.86390000
H      -43.52920000     -33.30800000     -68.82620000
C      -44.69250000     -35.32140000     -73.26820000
H      -44.59710000     -36.27090000     -73.69950000
H      -45.49880000     -35.36760000     -72.51120000
S      -43.64930000     -30.89620000     -69.24490000
S      -45.26030000     -34.27460000     -74.70650000
C      -44.65340000     -30.70250000     -70.73000000
H      -44.36100000     -29.67540000     -71.15510000
H      -44.38200000     -31.46560000     -71.45490000
C      -45.57350000     -32.54660000     -73.96680000
H      -45.48450000     -31.88610000     -74.83550000
H      -44.87420000     -32.27460000     -73.20750000
C      -46.94970000     -32.38200000     -73.34620000
H      -46.94020000     -31.33020000     -72.99040000
H      -47.69260000     -32.46320000     -74.07590000
C      -46.14030000     -30.75570000     -70.44480000
H      -46.82330000     -30.56070000     -71.30930000
H      -46.39510000     -30.09130000     -69.60100000
C      -46.51550000     -32.18220000     -69.96070000
C      -46.35770000     -32.64450000     -68.69010000
C      -47.13330000     -33.14210000     -70.82160000
H      -45.94670000     -32.07910000     -67.82600000
C      -47.56760000     -34.22940000     -70.08350000
C      -47.31880000     -33.32360000     -72.25920000
C      -47.91130000     -34.53690000     -72.53850000
S      -47.11240000     -34.25280000     -68.40740000
S      -48.17250000     -35.54120000     -71.07270000
H      -48.07380000     -35.00560000     -73.47700000
