40
Properties=species:S:1:pos:R:3 #=T CELL(abcABC):=T 1.889726e+02=T 90.00000=T Traj:=T positionsangstrom=T Step:=T 0=T Bead:=T pbc="F F F"
C      -42.27060000     -34.33980000     -73.28650000
C      -43.48260000     -34.47310000     -72.55830000
C      -43.52870000     -34.01640000     -71.26760000
C      -42.51960000     -33.29270000     -70.69130000
C      -41.31860000     -33.20690000     -71.40310000
C      -41.20950000     -33.67250000     -72.67600000
H      -42.15410000     -34.61170000     -74.33230000
H      -44.43110000     -34.21410000     -70.68310000
H      -40.39240000     -32.89640000     -70.90210000
H      -40.28870000     -33.49310000     -73.24580000
C      -42.75780000     -32.77740000     -69.30810000
H      -41.84470000     -32.67280000     -68.79420000
H      -43.35210000     -33.41310000     -68.67360000
C      -44.69760000     -35.31730000     -73.13830000
H      -44.47850000     -36.26360000     -73.63470000
H      -45.36470000     -35.48450000     -72.24970000
S      -43.36360000     -31.01240000     -69.29450000
S      -45.52220000     -34.48990000     -74.60680000
C      -44.52610000     -30.73520000     -70.76030000
H      -44.25250000     -29.80690000     -71.27490000
H      -44.41620000     -31.58950000     -71.41190000
C      -45.62160000     -32.75330000     -73.91300000
H      -45.34460000     -32.07950000     -74.74880000
H      -44.84170000     -32.72650000     -73.11320000
C      -46.98010000     -32.34570000     -73.33220000
H      -46.95390000     -31.28770000     -72.97490000
H      -47.71610000     -32.45600000     -74.12110000
C      -46.01460000     -30.67910000     -70.34670000
H      -46.59000000     -30.25450000     -71.20420000
H      -46.16070000     -29.92880000     -69.60610000
C      -46.53280000     -32.09510000     -69.96860000
C      -46.62960000     -32.53000000     -68.66870000
C      -47.09690000     -33.12250000     -70.84190000
H      -46.36480000     -31.84300000     -67.88250000
C      -47.50760000     -34.31860000     -70.14450000
C      -47.37650000     -33.28000000     -72.22430000
C      -48.05400000     -34.47380000     -72.55690000
S      -47.21290000     -34.18350000     -68.46340000
S      -48.28330000     -35.47620000     -71.16100000
H      -48.48740000     -34.82110000     -73.51360000
