40
Properties=species:S:1:pos:R:3 #=T CELL(abcABC):=T 1.889726e+02=T 90.00000=T Traj:=T positionsangstrom=T Step:=T 0=T Bead:=T pbc="F F F"
C      -42.36850000     -34.10940000     -73.32230000
C      -43.41200000     -34.64080000     -72.50190000
C      -43.40230000     -34.27320000     -71.15890000
C      -42.41840000     -33.37360000     -70.68820000
C      -41.45950000     -32.85550000     -71.51270000
C      -41.38540000     -33.29450000     -72.85090000
H      -42.49900000     -34.25030000     -74.37140000
H      -44.23640000     -34.62310000     -70.50510000
H      -40.74500000     -32.09170000     -71.20000000
H      -40.57200000     -32.84240000     -73.44630000
C      -42.68660000     -32.71430000     -69.28590000
H      -41.83110000     -32.81800000     -68.64220000
H      -43.51670000     -33.20230000     -68.88200000
C      -44.51760000     -35.49290000     -73.08470000
H      -44.05240000     -36.43810000     -73.49390000
H      -45.17890000     -35.91460000     -72.29940000
S      -43.12420000     -30.90880000     -69.45910000
S      -45.57450000     -34.79610000     -74.35500000
C      -44.24940000     -30.88190000     -70.88660000
H      -44.08140000     -29.87630000     -71.31750000
H      -43.97460000     -31.71870000     -71.53430000
C      -45.46570000     -32.98490000     -73.91730000
H      -45.15280000     -32.29510000     -74.71800000
H      -44.78380000     -32.90240000     -73.10120000
C      -46.81030000     -32.51720000     -73.44510000
H      -46.69750000     -31.45950000     -73.15230000
H      -47.51120000     -32.49380000     -74.30290000
C      -45.71910000     -30.86070000     -70.46240000
H      -46.38340000     -30.48460000     -71.23140000
H      -45.84110000     -30.15630000     -69.62820000
C      -46.35920000     -32.21830000     -70.03070000
C      -46.33970000     -32.64960000     -68.71810000
C      -47.12480000     -33.20080000     -70.86540000
H      -45.86650000     -32.19290000     -67.85010000
C      -47.83000000     -34.09620000     -70.11900000
C      -47.37120000     -33.31890000     -72.26310000
C      -48.24200000     -34.36510000     -72.52680000
S      -47.43740000     -34.00200000     -68.44040000
S      -48.66770000     -35.28100000     -71.03720000
H      -48.57150000     -34.63660000     -73.54440000
