40
Properties=species:S:1:pos:R:3 #=T CELL(abcABC):=T 1.889726e+02=T 90.00000=T Traj:=T positionsangstrom=T Step:=T 0=T Bead:=T pbc="F F F"
C      -42.34720000     -34.38130000     -73.38610000
C      -43.38430000     -34.75370000     -72.55160000
C      -43.44300000     -34.30700000     -71.22730000
C      -42.50020000     -33.32800000     -70.80210000
C      -41.57550000     -32.80500000     -71.74320000
C      -41.45040000     -33.29890000     -72.99980000
H      -42.20670000     -34.76710000     -74.35930000
H      -44.17430000     -34.65490000     -70.49820000
H      -40.96790000     -32.00130000     -71.44330000
H      -40.67220000     -32.92220000     -73.76180000
C      -42.61410000     -32.79140000     -69.45920000
H      -41.65780000     -32.74970000     -68.90580000
H      -43.28850000     -33.31710000     -68.71580000
C      -44.46690000     -35.64920000     -72.97170000
H      -44.01330000     -36.48530000     -73.43050000
H      -45.19830000     -35.99350000     -72.24070000
S      -43.14800000     -30.97560000     -69.36510000
S      -45.34460000     -34.74160000     -74.35800000
C      -44.25240000     -30.75220000     -70.81160000
H      -44.04330000     -29.79170000     -71.21890000
H      -43.92140000     -31.49130000     -71.49660000
C      -45.51120000     -33.01010000     -73.70220000
H      -45.03940000     -32.36880000     -74.50950000
H      -44.87420000     -32.90490000     -72.75680000
C      -46.90880000     -32.49540000     -73.37830000
H      -46.75910000     -31.41650000     -73.16680000
H      -47.54930000     -32.58920000     -74.23810000
C      -45.78800000     -30.88320000     -70.52730000
H      -46.18660000     -30.66350000     -71.53760000
H      -46.08910000     -30.07030000     -69.83520000
C      -46.35070000     -32.17870000     -70.04550000
C      -46.33530000     -32.57910000     -68.73390000
C      -47.20000000     -33.09040000     -70.85470000
H      -45.90270000     -32.06340000     -67.86640000
C      -47.72800000     -34.11420000     -70.11030000
C      -47.53060000     -33.23160000     -72.26720000
C      -48.34090000     -34.31470000     -72.46650000
S      -47.24510000     -34.07880000     -68.38410000
S      -48.85850000     -35.14030000     -71.02970000
H      -48.80970000     -34.40220000     -73.41370000
