40
Properties=species:S:1:pos:R:3 #=T CELL(abcABC):=T 1.889726e+02=T 90.00000=T Traj:=T positionsangstrom=T Step:=T 0=T Bead:=T pbc="F F F"
C      -42.39500000     -34.41420000     -73.46360000
C      -43.55610000     -34.53460000     -72.72540000
C      -43.67660000     -34.19300000     -71.37270000
C      -42.61660000     -33.63500000     -70.73080000
C      -41.37420000     -33.62530000     -71.41760000
C      -41.24420000     -34.02040000     -72.77460000
H      -42.31170000     -34.85200000     -74.48590000
H      -44.65080000     -34.29220000     -70.89320000
H      -40.53510000     -33.23730000     -70.84850000
H      -40.31150000     -33.91920000     -73.27010000
C      -42.68790000     -32.98230000     -69.42240000
H      -41.75150000     -33.08750000     -68.86160000
H      -43.41810000     -33.29430000     -68.71860000
C      -44.74580000     -35.31770000     -73.34260000
H      -44.35680000     -36.17520000     -73.89560000
H      -45.37230000     -35.78060000     -72.55240000
S      -43.00490000     -31.07570000     -69.51610000
S      -45.83350000     -34.46870000     -74.65640000
C      -44.12800000     -30.88150000     -70.96540000
H      -43.86520000     -29.93580000     -71.48820000
H      -43.91570000     -31.60630000     -71.77330000
C      -45.96680000     -32.66300000     -74.15940000
H      -45.95790000     -32.00640000     -75.04160000
H      -45.12360000     -32.36770000     -73.62300000
C      -47.25710000     -32.30810000     -73.35210000
H      -47.24750000     -31.25450000     -73.11540000
H      -48.05660000     -32.47030000     -74.05610000
C      -45.52470000     -30.86100000     -70.49860000
H      -46.15060000     -30.44300000     -71.33030000
H      -45.61960000     -30.10460000     -69.64730000
C      -46.20040000     -32.17130000     -69.98970000
C      -46.08290000     -32.50190000     -68.68690000
C      -47.04130000     -33.05380000     -70.73000000
H      -45.65450000     -31.83520000     -67.93070000
C      -47.54840000     -34.07020000     -69.89700000
C      -47.45610000     -33.17960000     -72.14060000
C      -48.30630000     -34.26320000     -72.25170000
S      -47.07130000     -33.88040000     -68.22310000
S      -48.59430000     -35.23290000     -70.74600000
H      -49.02200000     -34.37160000     -73.10600000
