40
Properties=species:S:1:pos:R:3 #=T CELL(abcABC):=T 1.889726e+02=T 90.00000=T Traj:=T positionsangstrom=T Step:=T 0=T Bead:=T pbc="F F F"
C      -42.73600000     -35.13130000     -73.31670000
C      -43.97110000     -35.03690000     -72.69140000
C      -44.04030000     -34.38560000     -71.47150000
C      -42.85750000     -33.85930000     -70.80920000
C      -41.61330000     -34.14900000     -71.33570000
C      -41.58380000     -34.75040000     -72.62980000
H      -42.66570000     -35.47160000     -74.30020000
H      -44.97700000     -34.18510000     -71.00490000
H      -40.68310000     -33.74280000     -70.83850000
H      -40.53800000     -34.88130000     -73.08300000
C      -42.85150000     -33.00000000     -69.53790000
H      -41.95470000     -33.05720000     -68.91800000
H      -43.79940000     -33.30950000     -69.05340000
C      -45.07490000     -35.45960000     -73.54030000
H      -44.79480000     -36.30550000     -74.13940000
H      -45.96240000     -35.63660000     -72.95640000
S      -42.89180000     -31.17530000     -69.81730000
S      -45.41450000     -34.03860000     -74.79000000
C      -44.20620000     -30.85800000     -71.10610000
H      -43.78670000     -29.97830000     -71.55430000
H      -44.03090000     -31.67680000     -71.85200000
C      -45.76050000     -32.53790000     -73.79220000
H      -45.46470000     -31.68600000     -74.41810000
H      -45.04710000     -32.49850000     -72.90140000
C      -47.21480000     -32.29050000     -73.23400000
H      -47.19070000     -31.25020000     -72.95800000
H      -47.91620000     -32.41650000     -74.07290000
C      -45.65690000     -30.64680000     -70.61780000
H      -46.30040000     -30.21860000     -71.43870000
H      -45.71440000     -29.75640000     -69.96170000
C      -46.32130000     -31.85040000     -69.94930000
C      -46.27890000     -32.14220000     -68.60180000
C      -46.92350000     -32.91360000     -70.73930000
H      -45.78900000     -31.57620000     -67.80060000
C      -47.37250000     -33.87520000     -69.84030000
C      -47.42250000     -33.11270000     -72.05230000
C      -48.20630000     -34.27270000     -72.10050000
S      -47.09470000     -33.59180000     -68.13530000
S      -48.19070000     -35.21530000     -70.61700000
H      -48.52740000     -34.62230000     -73.06900000
