40
Properties=species:S:1:pos:R:3 #=T CELL(abcABC):=T 1.889726e+02=T 90.00000=T Traj:=T positionsangstrom=T Step:=T 0=T Bead:=T pbc="F F F"
C      -42.59890000     -35.36710000     -73.12610000
C      -43.88220000     -34.98760000     -72.78330000
C      -44.00920000     -34.25300000     -71.60280000
C      -42.90950000     -33.78180000     -70.84060000
C      -41.57180000     -34.18010000     -71.22410000
C      -41.46770000     -35.03100000     -72.32600000
H      -42.56120000     -36.08430000     -73.96360000
H      -44.95290000     -34.07960000     -71.13880000
H      -40.72950000     -33.88170000     -70.56690000
H      -40.46310000     -35.31410000     -72.65100000
C      -43.32390000     -33.02200000     -69.54090000
H      -42.83360000     -33.25370000     -68.58960000
H      -44.31740000     -33.24580000     -69.29430000
C      -45.16100000     -35.33310000     -73.56370000
H      -44.97760000     -36.32610000     -74.03100000
H      -46.00410000     -35.48620000     -72.84740000
S      -42.96030000     -31.25130000     -69.75630000
S      -45.48950000     -34.11010000     -74.96660000
C      -44.16260000     -30.74430000     -71.04870000
H      -43.74620000     -29.87520000     -71.64060000
H      -44.30570000     -31.52850000     -71.78670000
C      -45.69030000     -32.52940000     -74.10320000
H      -45.60560000     -31.73550000     -74.78550000
H      -44.82480000     -32.48390000     -73.45740000
C      -47.03110000     -32.42750000     -73.29430000
H      -47.18440000     -31.44620000     -72.88190000
H      -47.86820000     -32.58860000     -73.96730000
C      -45.64960000     -30.48670000     -70.62830000
H      -46.19810000     -30.17980000     -71.49290000
H      -45.68320000     -29.71500000     -69.85720000
C      -46.32470000     -31.72250000     -70.00930000
C      -46.25910000     -31.89560000     -68.65570000
C      -47.04820000     -32.83800000     -70.69150000
H      -45.84160000     -31.11430000     -68.05300000
C      -47.41200000     -33.85580000     -69.78630000
C      -47.29550000     -33.27920000     -72.04000000
C      -48.06070000     -34.47610000     -72.11790000
S      -46.94150000     -33.49010000     -68.12820000
S      -48.24290000     -35.16110000     -70.51060000
H      -48.47260000     -34.92590000     -73.05110000
