40
Properties=species:S:1:pos:R:3 #=T CELL(abcABC):=T 1.889726e+02=T 90.00000=T Traj:=T positionsangstrom=T Step:=T 0=T Bead:=T pbc="F F F"
C      -42.34910000     -35.41910000     -73.25000000
C      -43.67210000     -35.07050000     -72.96340000
C      -43.89100000     -34.31240000     -71.74560000
C      -42.84090000     -34.00060000     -70.83690000
C      -41.49850000     -34.38630000     -71.18460000
C      -41.28470000     -35.05500000     -72.43070000
H      -42.18420000     -35.91540000     -74.20600000
H      -44.92060000     -34.14180000     -71.37900000
H      -40.67220000     -34.08530000     -70.61320000
H      -40.29730000     -35.33660000     -72.77100000
C      -43.07770000     -33.34010000     -69.55770000
H      -42.30810000     -33.57850000     -68.92770000
H      -44.04310000     -33.52220000     -69.24670000
C      -45.00140000     -35.52930000     -73.68210000
H      -44.71050000     -36.38550000     -74.36870000
H      -45.72370000     -35.87380000     -72.92450000
S      -43.03350000     -31.42740000     -69.66020000
S      -45.64820000     -34.22900000     -74.77460000
C      -44.07060000     -30.94710000     -71.10660000
H      -43.50160000     -30.12500000     -71.56880000
H      -43.97060000     -31.65030000     -71.94410000
C      -45.82910000     -32.61890000     -73.88440000
H      -45.65510000     -31.79060000     -74.55440000
H      -45.07030000     -32.48510000     -73.20070000
C      -47.18220000     -32.33130000     -73.28210000
H      -47.11000000     -31.30290000     -72.97970000
H      -47.93080000     -32.46600000     -74.02480000
C      -45.47260000     -30.43130000     -70.84030000
H      -45.95550000     -30.17700000     -71.80030000
H      -45.50180000     -29.41820000     -70.39480000
C      -46.37830000     -31.52120000     -70.12400000
C      -46.34100000     -31.63510000     -68.77830000
C      -47.00500000     -32.75100000     -70.72680000
H      -45.84750000     -31.03570000     -68.05260000
C      -47.38820000     -33.65720000     -69.75380000
C      -47.59650000     -33.12170000     -72.04940000
C      -48.27070000     -34.36900000     -72.00810000
S      -47.04890000     -33.16450000     -68.16060000
S      -48.25380000     -35.05380000     -70.40110000
H      -48.47220000     -34.95140000     -72.92060000
