40
Properties=species:S:1:pos:R:3 #=T CELL(abcABC):=T 1.889726e+02=T 90.00000=T Traj:=T positionsangstrom=T Step:=T 0=T Bead:=T pbc="F F F"
C      -47.06570000     -29.40690000     -70.45480000
C      -45.85250000     -29.98780000     -70.08520000
C      -44.87560000     -30.27850000     -71.09640000
C      -45.15760000     -30.08310000     -72.42300000
C      -46.37630000     -29.50350000     -72.77880000
C      -47.35680000     -29.18440000     -71.80570000
H      -47.75640000     -29.04720000     -69.75150000
H      -43.77920000     -30.63350000     -70.88340000
H      -46.57310000     -29.37110000     -73.83520000
H      -48.19680000     -28.59980000     -72.05380000
C      -44.22820000     -30.42670000     -73.54410000
H      -43.26630000     -30.74500000     -73.18860000
H      -44.11070000     -29.51990000     -74.24000000
C      -45.43960000     -30.12440000     -68.62520000
H      -44.35100000     -30.05510000     -68.56730000
H      -45.88790000     -29.31160000     -68.09120000
S      -44.94470000     -31.66730000     -74.73550000
S      -45.82350000     -31.75490000     -67.87930000
C      -45.37780000     -33.04650000     -73.61800000
H      -45.96270000     -32.68980000     -72.82210000
H      -46.00060000     -33.69190000     -74.15710000
C      -45.00820000     -33.02430000     -68.99310000
H      -44.57330000     -33.78500000     -68.40370000
H      -44.21130000     -32.46260000     -69.49350000
C      -45.99830000     -33.63370000     -70.09740000
H      -47.07870000     -33.51450000     -69.86780000
H      -45.73270000     -33.12260000     -70.96110000
C      -44.16350000     -33.83480000     -73.06930000
H      -43.67260000     -33.36440000     -72.24670000
H      -43.50250000     -33.94300000     -73.90170000
C      -44.45210000     -35.27140000     -72.55910000
C      -44.02130000     -36.32380000     -73.32670000
C      -45.12490000     -35.76180000     -71.28080000
H      -43.56340000     -36.25120000     -74.36350000
C      -45.08600000     -37.15050000     -71.23800000
C      -45.71010000     -35.09960000     -70.14110000
C      -45.95930000     -36.03420000     -69.14830000
S      -44.32830000     -37.91910000     -72.61850000
S      -45.51660000     -37.72810000     -69.57330000
H      -46.33430000     -35.69290000     -68.17100000
