40
Properties=species:S:1:pos:R:3 #=T CELL(abcABC):=T 1.889726e+02=T 90.00000=T Traj:=T positionsangstrom=T Step:=T 0=T Bead:=T pbc="F F F"
C      -46.94560000     -29.50170000     -70.45010000
C      -45.69180000     -30.00870000     -70.07760000
C      -44.79140000     -30.34120000     -71.05540000
C      -45.19450000     -30.29590000     -72.43520000
C      -46.47540000     -29.80800000     -72.74720000
C      -47.30410000     -29.33660000     -71.74070000
H      -47.68350000     -29.13900000     -69.75190000
H      -43.76260000     -30.70450000     -70.82360000
H      -46.69710000     -29.72620000     -73.80640000
H      -48.31710000     -29.00520000     -72.01480000
C      -44.21010000     -30.71240000     -73.53260000
H      -43.20020000     -31.08710000     -73.18200000
H      -44.04300000     -29.88190000     -74.15590000
C      -45.26810000     -30.14120000     -68.65640000
H      -44.18790000     -30.02830000     -68.55660000
H      -45.67180000     -29.37060000     -67.97700000
S      -45.00510000     -31.73500000     -74.86160000
S      -45.80790000     -31.71130000     -67.83670000
C      -45.42520000     -33.25110000     -73.83820000
H      -46.34630000     -33.01820000     -73.23950000
H      -45.67190000     -34.06280000     -74.49530000
C      -45.01970000     -33.02600000     -68.78320000
H      -44.78010000     -33.77910000     -68.06610000
H      -44.03200000     -32.69040000     -69.25120000
C      -45.95140000     -33.51160000     -69.91590000
H      -46.96270000     -33.21010000     -69.54080000
H      -45.98320000     -32.90620000     -70.81900000
C      -44.25670000     -33.77670000     -73.03010000
H      -44.12240000     -33.03630000     -72.20040000
H      -43.25330000     -33.71630000     -73.56520000
C      -44.42170000     -35.21610000     -72.54910000
C      -44.03060000     -36.31030000     -73.31570000
C      -44.93920000     -35.63470000     -71.29610000
H      -43.45980000     -36.27810000     -74.24580000
C      -44.93550000     -36.96930000     -71.15050000
C      -45.72770000     -34.96150000     -70.25430000
C      -46.14150000     -35.91130000     -69.35010000
S      -44.26440000     -37.86040000     -72.49410000
S      -45.72420000     -37.51390000     -69.68350000
H      -46.62170000     -35.65910000     -68.37280000
