40
Properties=species:S:1:pos:R:3 #=T CELL(abcABC):=T 1.889726e+02=T 90.00000=T Traj:=T positionsangstrom=T Step:=T 0=T Bead:=T pbc="F F F"
C      -46.79100000     -29.71330000     -70.32750000
C      -45.46140000     -30.05000000     -70.14480000
C      -44.68880000     -30.43710000     -71.23640000
C      -45.27450000     -30.36740000     -72.53520000
C      -46.64120000     -29.89650000     -72.67460000
C      -47.36890000     -29.60600000     -71.55560000
H      -47.47630000     -29.60170000     -69.43650000
H      -43.72250000     -30.79490000     -71.17880000
H      -47.14430000     -29.77800000     -73.66060000
H      -48.46820000     -29.30250000     -71.55580000
C      -44.37880000     -30.63380000     -73.66790000
H      -43.52490000     -31.14850000     -73.13790000
H      -43.82390000     -29.80320000     -74.10770000
C      -44.95620000     -30.11270000     -68.70960000
H      -43.84190000     -30.17190000     -68.64730000
H      -45.37340000     -29.17210000     -68.23510000
S      -45.00830000     -31.84140000     -74.91510000
S      -45.78270000     -31.46210000     -67.74550000
C      -45.37520000     -33.42470000     -74.02470000
H      -46.31090000     -33.38040000     -73.50310000
H      -45.55310000     -34.09670000     -74.91280000
C      -45.10060000     -32.96360000     -68.72410000
H      -45.17560000     -33.85490000     -68.11710000
H      -44.07010000     -32.71170000     -68.78550000
C      -45.85910000     -33.40250000     -69.96350000
H      -46.92670000     -33.15950000     -69.84150000
H      -45.56240000     -32.84420000     -70.89760000
C      -44.29050000     -33.78200000     -73.05400000
H      -44.16110000     -33.06180000     -72.24120000
H      -43.39960000     -33.68410000     -73.61130000
C      -44.39170000     -35.16110000     -72.48240000
C      -43.87900000     -36.23890000     -73.18510000
C      -45.16950000     -35.61620000     -71.34910000
H      -43.38560000     -36.05290000     -74.08800000
C      -45.03540000     -36.98490000     -71.15230000
C      -45.76020000     -34.88340000     -70.19530000
C      -46.17850000     -35.81050000     -69.23170000
S      -44.20800000     -37.78470000     -72.45880000
S      -45.85710000     -37.56720000     -69.73660000
H      -46.68820000     -35.52480000     -68.32190000
