40
Properties=species:S:1:pos:R:3 #=T CELL(abcABC):=T 1.889726e+02=T 90.00000=T Traj:=T positionsangstrom=T Step:=T 0=T Bead:=T pbc="F F F"
C      -46.71620000     -30.11510000     -70.33450000
C      -45.33700000     -30.31660000     -70.31220000
C      -44.64360000     -30.49550000     -71.52020000
C      -45.31060000     -30.40540000     -72.72560000
C      -46.65000000     -29.98960000     -72.76050000
C      -47.41870000     -30.00480000     -71.54160000
H      -47.20910000     -30.08450000     -69.39520000
H      -43.52860000     -30.75280000     -71.63470000
H      -47.21360000     -29.67500000     -73.64630000
H      -48.49510000     -29.80630000     -71.63770000
C      -44.60540000     -30.64510000     -74.06910000
H      -43.53110000     -30.54630000     -73.97480000
H      -44.92850000     -29.81190000     -74.74390000
C      -44.45300000     -30.38160000     -69.09460000
H      -43.43890000     -30.83480000     -69.30330000
H      -44.19710000     -29.39950000     -68.62030000
S      -45.07500000     -32.17990000     -75.04900000
S      -45.28770000     -31.31820000     -67.79900000
C      -45.36450000     -33.34890000     -73.64930000
H      -46.28140000     -33.04210000     -73.09390000
H      -45.72780000     -34.27910000     -74.06760000
C      -45.16630000     -33.04060000     -68.47970000
H      -45.49930000     -33.73120000     -67.72720000
H      -44.09180000     -33.22910000     -68.60520000
C      -45.85760000     -33.26050000     -69.84520000
H      -46.81510000     -32.66590000     -69.91530000
H      -45.26570000     -32.72100000     -70.54750000
C      -44.13080000     -33.60410000     -72.74920000
H      -44.07860000     -32.94860000     -71.88340000
H      -43.20830000     -33.53190000     -73.30280000
C      -44.25180000     -35.02770000     -72.22910000
C      -43.69120000     -36.06850000     -72.94930000
C      -45.02930000     -35.42960000     -71.08080000
H      -42.96670000     -36.15590000     -73.74210000
C      -45.11090000     -36.82010000     -71.00230000
C      -45.92460000     -34.74330000     -70.15370000
C      -46.66470000     -35.67310000     -69.46610000
S      -44.27700000     -37.62990000     -72.23510000
S      -46.34320000     -37.40500000     -69.85850000
H      -47.36490000     -35.41940000     -68.69920000
