40
Properties=species:S:1:pos:R:3 #=T CELL(abcABC):=T 1.889726e+02=T 90.00000=T Traj:=T positionsangstrom=T Step:=T 0=T Bead:=T pbc="F F F"
C      -42.79980000     -35.21970000     -73.61200000
C      -43.79600000     -34.72740000     -72.74920000
C      -43.45860000     -33.92290000     -71.65930000
C      -42.12050000     -33.61970000     -71.43950000
C      -41.09570000     -34.25260000     -72.25450000
C      -41.43490000     -35.08870000     -73.32300000
H      -43.19970000     -35.85980000     -74.40150000
H      -44.20920000     -33.56570000     -70.95200000
H      -40.09650000     -33.86410000     -72.03580000
H      -40.59440000     -35.59380000     -73.78400000
C      -41.69000000     -32.84770000     -70.22700000
H      -40.77050000     -32.22510000     -70.25780000
H      -41.61100000     -33.46310000     -69.35660000
C      -45.22610000     -35.17820000     -73.15660000
H      -45.11250000     -36.18900000     -73.51970000
H      -45.88950000     -35.17010000     -72.32160000
S      -42.98620000     -31.56350000     -69.57510000
S      -46.05660000     -34.22790000     -74.44270000
C      -43.98980000     -30.98250000     -71.04530000
H      -43.53050000     -30.05780000     -71.35900000
H      -43.83630000     -31.73150000     -71.87590000
C      -46.09940000     -32.50750000     -73.77250000
H      -45.94690000     -31.80430000     -74.66360000
H      -45.31640000     -32.37140000     -73.01510000
C      -47.45300000     -32.24780000     -73.12430000
H      -47.54290000     -31.18310000     -72.83660000
H      -48.26690000     -32.43210000     -73.76440000
C      -45.44720000     -30.84190000     -70.74240000
H      -45.98340000     -30.63890000     -71.66470000
H      -45.63440000     -29.93480000     -70.04130000
C      -46.14660000     -31.97640000     -70.01060000
C      -45.89540000     -32.21960000     -68.68510000
C      -47.12700000     -32.86250000     -70.62140000
H      -45.36480000     -31.65610000     -67.99640000
C      -47.54940000     -33.81860000     -69.70360000
C      -47.68430000     -33.11420000     -71.92660000
C      -48.58850000     -34.13470000     -71.81260000
S      -46.92800000     -33.53260000     -68.09460000
S      -48.64340000     -34.96500000     -70.24800000
H      -49.36990000     -34.45690000     -72.47420000
