40
Properties=species:S:1:pos:R:3 #=T CELL(abcABC):=T 1.889726e+02=T 90.00000=T Traj:=T positionsangstrom=T Step:=T 0=T Bead:=T pbc="F F F"
C      -47.24700000     -35.03080000     -74.06240000
C      -45.85570000     -34.98320000     -74.34380000
C      -45.00120000     -35.74690000     -73.53060000
C      -45.43550000     -36.56680000     -72.52090000
C      -46.84830000     -36.72550000     -72.36360000
C      -47.69400000     -35.92000000     -73.11070000
H      -47.97310000     -34.36050000     -74.54150000
H      -43.90680000     -35.63210000     -73.66120000
H      -47.33320000     -37.34430000     -71.55150000
H      -48.75030000     -35.87940000     -72.87420000
C      -44.50640000     -37.35030000     -71.63290000
H      -43.81150000     -38.06780000     -72.15650000
H      -44.98920000     -37.94240000     -70.84020000
C      -45.24300000     -34.12860000     -75.40320000
H      -44.44350000     -34.73010000     -75.88400000
H      -45.99310000     -33.97220000     -76.21780000
S      -43.24940000     -36.32550000     -70.81340000
S      -44.37950000     -32.67500000     -74.82910000
C      -44.30140000     -35.10260000     -69.94440000
H      -45.06140000     -34.88490000     -70.70700000
H      -44.67280000     -35.71280000     -69.02380000
C      -45.51800000     -31.89540000     -73.57310000
H      -46.53970000     -31.80450000     -73.93410000
H      -45.15270000     -30.85660000     -73.64510000
C      -45.51580000     -32.48960000     -72.15050000
H      -46.23970000     -33.32820000     -72.23240000
H      -44.51340000     -32.98820000     -72.00650000
C      -43.56310000     -33.86590000     -69.54730000
H      -42.95440000     -33.36920000     -70.35160000
H      -42.75250000     -34.18680000     -68.86210000
C      -44.43630000     -32.68340000     -68.97170000
C      -44.30320000     -32.37470000     -67.64630000
C      -45.38660000     -31.82740000     -69.67730000
H      -43.68980000     -32.92060000     -67.01450000
C      -45.91450000     -30.89780000     -68.79930000
C      -45.85440000     -31.61690000     -71.01360000
C      -46.68160000     -30.52640000     -71.17700000
S      -45.28650000     -30.95670000     -67.20620000
S      -46.88930000     -29.70650000     -69.61850000
H      -47.04130000     -30.18490000     -72.15120000
