40
Properties=species:S:1:pos:R:3 #=T CELL(abcABC):=T 1.889726e+02=T 90.00000=T Traj:=T positionsangstrom=T Step:=T 0=T Bead:=T pbc="F F F"
C      -42.97330000     -35.22180000     -74.25640000
C      -43.94270000     -35.00850000     -73.21710000
C      -43.60160000     -34.18860000     -72.17460000
C      -42.46820000     -33.34440000     -72.18210000
C      -41.52580000     -33.57980000     -73.19020000
C      -41.76350000     -34.57760000     -74.13910000
H      -43.15330000     -35.91650000     -75.10670000
H      -44.29400000     -34.14190000     -71.27000000
H      -40.49160000     -33.16670000     -73.12000000
H      -41.04180000     -34.77950000     -74.94330000
C      -42.07840000     -32.21940000     -71.25130000
H      -41.72190000     -31.35010000     -71.83290000
H      -41.25470000     -32.74780000     -70.77300000
C      -45.31350000     -35.63030000     -73.24010000
H      -45.35250000     -36.50200000     -73.79810000
H      -45.72030000     -35.82410000     -72.27210000
S      -43.20110000     -31.66710000     -69.95970000
S      -46.54400000     -34.68030000     -74.32570000
C      -44.34390000     -30.49820000     -70.89450000
H      -43.85540000     -29.52040000     -70.98140000
H      -44.45820000     -30.98050000     -71.86660000
C      -46.15740000     -32.89130000     -73.85180000
H      -46.18440000     -32.21300000     -74.75140000
H      -45.09440000     -32.92470000     -73.57680000
C      -47.01390000     -32.29560000     -72.75680000
H      -46.64940000     -31.28680000     -72.29440000
H      -48.00850000     -32.01800000     -73.10640000
C      -45.59410000     -30.38080000     -70.03840000
H      -46.47960000     -29.95100000     -70.53030000
H      -45.29880000     -29.66120000     -69.25230000
C      -46.07410000     -31.73050000     -69.43800000
C      -46.09600000     -31.98090000     -68.05950000
C      -46.73410000     -32.86630000     -70.16130000
H      -45.55590000     -31.23350000     -67.41370000
C      -47.09690000     -33.83800000     -69.23640000
C      -47.19980000     -33.20060000     -71.53170000
C      -47.89460000     -34.36610000     -71.46410000
S      -46.78640000     -33.51140000     -67.59210000
S      -47.96100000     -35.18200000     -69.93680000
H      -48.31730000     -34.84370000     -72.29640000
