40
Properties=species:S:1:pos:R:3 #=T CELL(abcABC):=T 1.889726e+02=T 90.00000=T Traj:=T positionsangstrom=T Step:=T 0=T Bead:=T pbc="F F F"
C      -42.92230000     -34.91630000     -74.45150000
C      -43.75020000     -34.77130000     -73.33430000
C      -43.40320000     -33.85850000     -72.30910000
C      -42.32400000     -33.00370000     -72.49590000
C      -41.44510000     -33.18650000     -73.65030000
C      -41.74420000     -34.17650000     -74.59040000
H      -43.11550000     -35.83120000     -75.02710000
H      -43.92710000     -33.75940000     -71.39490000
H      -40.68520000     -32.47390000     -73.96850000
H      -41.06360000     -34.38330000     -75.39580000
C      -41.79640000     -32.03820000     -71.39960000
H      -41.25960000     -31.16050000     -71.82140000
H      -41.04780000     -32.47890000     -70.71640000
C      -44.92770000     -35.71060000     -73.14480000
H      -44.69760000     -36.66540000     -73.55250000
H      -45.08480000     -35.88820000     -72.08000000
S      -43.12700000     -31.34670000     -70.27430000
S      -46.55950000     -35.24740000     -73.74510000
C      -44.41470000     -30.58870000     -71.37300000
H      -43.99770000     -29.61770000     -71.55660000
H      -44.60860000     -31.04190000     -72.41160000
C      -46.66280000     -33.43250000     -73.44050000
H      -46.61480000     -32.98710000     -74.45720000
H      -45.74490000     -33.15030000     -72.90920000
C      -47.84330000     -32.99690000     -72.66200000
H      -47.83270000     -31.92910000     -72.72210000
H      -48.82700000     -33.35420000     -73.12890000
C      -45.80190000     -30.57760000     -70.67140000
H      -46.59390000     -30.32070000     -71.40910000
H      -45.76050000     -29.69670000     -70.03230000
C      -46.07890000     -31.81070000     -69.84000000
C      -45.63750000     -31.84960000     -68.56890000
C      -46.98040000     -32.93830000     -70.13210000
H      -44.82010000     -31.26980000     -68.17390000
C      -47.06680000     -33.82580000     -69.03720000
C      -47.69770000     -33.46690000     -71.23920000
C      -48.33550000     -34.63260000     -70.93770000
S      -46.13410000     -33.30260000     -67.62040000
S      -48.25700000     -35.09290000     -69.25050000
H      -49.00520000     -35.12340000     -71.67310000
