40
Properties=species:S:1:pos:R:3 #=T CELL(abcABC):=T 1.889726e+02=T 90.00000=T Traj:=T positionsangstrom=T Step:=T 0=T Bead:=T pbc="F F F"
C      -42.98240000     -34.79520000     -74.55280000
C      -43.72610000     -34.70800000     -73.32640000
C      -43.36090000     -33.76970000     -72.35830000
C      -42.26370000     -32.91190000     -72.54650000
C      -41.54100000     -32.94140000     -73.77500000
C      -42.01690000     -33.83800000     -74.74610000
H      -43.30210000     -35.39620000     -75.43210000
H      -44.01820000     -33.70010000     -71.45340000
H      -40.67370000     -32.26410000     -73.80990000
H      -41.43440000     -33.83560000     -75.66050000
C      -41.79570000     -31.98230000     -71.43250000
H      -41.14710000     -31.23010000     -71.82810000
H      -41.20080000     -32.62230000     -70.77310000
C      -44.75320000     -35.70680000     -72.94840000
H      -44.55390000     -36.67450000     -73.38120000
H      -44.79360000     -35.72510000     -71.81430000
S      -43.04930000     -31.14680000     -70.38240000
S      -46.55510000     -35.38440000     -73.57530000
C      -44.42140000     -30.87710000     -71.56790000
H      -44.25280000     -29.96750000     -72.09100000
H      -44.45560000     -31.72160000     -72.26880000
C      -46.65320000     -33.56940000     -73.63200000
H      -47.01450000     -33.30810000     -74.63140000
H      -45.63530000     -33.12550000     -73.56710000
C      -47.72010000     -33.02130000     -72.62170000
H      -47.74940000     -31.93050000     -72.63480000
H      -48.66370000     -33.26180000     -73.11210000
C      -45.74360000     -30.77680000     -70.85200000
H      -46.49230000     -30.83490000     -71.64220000
H      -45.90530000     -29.93040000     -70.19020000
C      -46.01570000     -31.98330000     -69.87110000
C      -45.51640000     -31.99630000     -68.64090000
C      -46.99520000     -33.04010000     -70.06080000
H      -44.88130000     -31.30150000     -68.23090000
C      -47.16230000     -33.81170000     -68.87780000
C      -47.77180000     -33.52930000     -71.15570000
C      -48.65620000     -34.52150000     -70.70580000
S      -46.05280000     -33.33630000     -67.64600000
S      -48.29560000     -35.09830000     -69.09380000
H      -49.34640000     -35.07990000     -71.35390000
