40
Properties=species:S:1:pos:R:3 #=T CELL(abcABC):=T 1.889726e+02=T 90.00000=T Traj:=T positionsangstrom=T Step:=T 0=T Bead:=T pbc="F F F"
C      -43.56550000     -34.62970000     -74.68200000
C      -43.90170000     -34.76010000     -73.29530000
C      -43.25870000     -33.97420000     -72.38820000
C      -42.27390000     -32.98700000     -72.69130000
C      -42.10700000     -32.70560000     -74.07790000
C      -42.62570000     -33.63040000     -75.05010000
H      -43.86010000     -35.42640000     -75.35650000
H      -43.35380000     -34.27510000     -71.28590000
H      -41.63110000     -31.81220000     -74.38020000
H      -42.56940000     -33.30170000     -76.05790000
C      -41.66140000     -31.98570000     -71.70070000
H      -40.86770000     -31.31240000     -72.14890000
H      -41.14970000     -32.55310000     -70.92810000
C      -44.90860000     -35.75200000     -72.58410000
H      -44.55570000     -36.79540000     -72.65740000
H      -44.84550000     -35.61210000     -71.50150000
S      -42.87530000     -31.03020000     -70.74590000
S      -46.59980000     -35.69620000     -73.13590000
C      -44.38000000     -30.85720000     -71.72500000
H      -44.32350000     -29.93160000     -72.36720000
H      -44.49380000     -31.63560000     -72.48130000
C      -46.77100000     -33.87620000     -73.52930000
H      -46.99130000     -33.63870000     -74.59560000
H      -45.75650000     -33.48730000     -73.41070000
C      -47.71480000     -33.13710000     -72.51300000
H      -47.44660000     -32.10880000     -72.62310000
H      -48.79520000     -33.22310000     -72.80500000
C      -45.64890000     -30.73650000     -70.86270000
H      -46.43550000     -30.59400000     -71.59630000
H      -45.45860000     -29.84610000     -70.21800000
C      -45.97050000     -31.83360000     -69.88270000
C      -45.39630000     -31.86350000     -68.65870000
C      -46.89770000     -33.01300000     -70.02630000
H      -44.70920000     -31.11180000     -68.28210000
C      -46.95850000     -33.79400000     -68.86520000
C      -47.68200000     -33.56990000     -71.07540000
C      -48.49840000     -34.66730000     -70.65700000
S      -45.84230000     -33.23260000     -67.63010000
S      -48.19140000     -35.00500000     -68.95770000
H      -48.99890000     -35.38180000     -71.35500000
