40
Properties=species:S:1:pos:R:3 #=T CELL(abcABC):=T 1.889726e+02=T 90.00000=T Traj:=T positionsangstrom=T Step:=T 0=T Bead:=T pbc="F F F"
C      -43.47150000     -34.84940000     -74.59900000
C      -43.84620000     -34.82070000     -73.26310000
C      -43.35890000     -33.76980000     -72.45380000
C      -42.39630000     -32.81970000     -72.85320000
C      -42.02280000     -32.85150000     -74.23070000
C      -42.66560000     -33.81280000     -75.07390000
H      -43.88860000     -35.51940000     -75.38140000
H      -43.76000000     -33.70620000     -71.39930000
H      -41.16440000     -32.22380000     -74.54690000
H      -42.33880000     -33.95570000     -76.09790000
C      -41.80180000     -31.86570000     -71.89590000
H      -41.37440000     -31.05950000     -72.45220000
H      -40.92570000     -32.25870000     -71.31110000
C      -44.75460000     -35.96320000     -72.92270000
H      -44.51630000     -36.80640000     -73.62350000
H      -44.58540000     -36.33660000     -71.90240000
S      -43.03920000     -31.09890000     -70.62750000
S      -46.55930000     -35.62140000     -73.18160000
C      -44.60900000     -30.85040000     -71.71240000
H      -44.39950000     -29.92170000     -72.26950000
H      -44.69600000     -31.68780000     -72.34640000
C      -46.84070000     -33.74780000     -73.45200000
H      -47.21580000     -33.60050000     -74.48560000
H      -45.87090000     -33.23470000     -73.48320000
C      -47.85870000     -33.08690000     -72.54920000
H      -47.94040000     -32.03250000     -72.76770000
H      -48.77750000     -33.65680000     -72.85290000
C      -45.69970000     -30.68530000     -70.73230000
H      -46.61640000     -30.45120000     -71.27020000
H      -45.56650000     -29.77280000     -70.09050000
C      -45.96690000     -31.82520000     -69.75140000
C      -45.27090000     -31.90970000     -68.59300000
C      -46.88870000     -32.93350000     -69.96470000
H      -44.59530000     -31.10080000     -68.14900000
C      -46.76450000     -33.79730000     -68.89840000
C      -47.69710000     -33.47440000     -71.05280000
C      -48.46470000     -34.56490000     -70.58930000
S      -45.82510000     -33.18770000     -67.52330000
S      -47.98870000     -35.09570000     -68.96890000
H      -49.20120000     -35.18620000     -71.12950000
