40
Properties=species:S:1:pos:R:3 #=T CELL(abcABC):=T 1.889726e+02=T 90.00000=T Traj:=T positionsangstrom=T Step:=T 0=T Bead:=T pbc="F F F"
C      -43.35490000     -34.93200000     -74.65020000
C      -43.78460000     -34.85410000     -73.29120000
C      -43.20180000     -33.83650000     -72.42660000
C      -42.40890000     -32.85590000     -72.95730000
C      -42.00160000     -32.97060000     -74.32850000
C      -42.53240000     -33.95020000     -75.19680000
H      -43.80050000     -35.68840000     -75.37920000
H      -43.48610000     -33.78210000     -71.40510000
H      -41.47820000     -32.07380000     -74.79190000
H      -42.29940000     -34.03190000     -76.28500000
C      -41.93380000     -31.67390000     -72.02880000
H      -41.72730000     -30.80200000     -72.66000000
H      -41.06430000     -31.94840000     -71.43480000
C      -44.85110000     -35.81760000     -72.65800000
H      -44.73410000     -36.87180000     -72.93440000
H      -44.89450000     -35.63450000     -71.56690000
S      -43.14340000     -31.23020000     -70.69580000
S      -46.62610000     -35.40550000     -73.28610000
C      -44.62520000     -30.73380000     -71.68460000
H      -44.54380000     -29.74730000     -72.14680000
H      -44.87680000     -31.42770000     -72.56620000
C      -46.62530000     -33.58920000     -73.17300000
H      -46.53990000     -33.13120000     -74.16200000
H      -45.80010000     -33.38300000     -72.51770000
C      -47.77080000     -33.03190000     -72.39470000
H      -47.76400000     -31.93830000     -72.42780000
H      -48.70840000     -33.24770000     -72.82370000
C      -45.90380000     -30.67030000     -70.81910000
H      -46.75750000     -30.40390000     -71.48740000
H      -45.77290000     -29.72440000     -70.32680000
C      -46.18700000     -31.75070000     -69.74820000
C      -45.61700000     -31.73220000     -68.51980000
C      -46.92230000     -33.01310000     -69.91560000
H      -44.73410000     -31.01420000     -68.35010000
C      -46.77620000     -33.83310000     -68.79430000
C      -47.75790000     -33.54630000     -70.94310000
C      -48.19740000     -34.81280000     -70.55220000
S      -45.75470000     -33.24180000     -67.62200000
S      -47.84590000     -35.20800000     -68.92310000
H      -48.91150000     -35.34380000     -71.13830000
