40
Properties=species:S:1:pos:R:3 #=T CELL(abcABC):=T 1.889726e+02=T 90.00000=T Traj:=T positionsangstrom=T Step:=T 0=T Bead:=T pbc="F F F"
C      -44.23930000     -34.78340000     -73.72890000
C      -45.19800000     -33.74300000     -73.97950000
C      -46.47620000     -33.90880000     -73.44360000
C      -46.83130000     -35.03930000     -72.71650000
C      -45.88810000     -36.11430000     -72.56130000
C      -44.60270000     -35.97760000     -73.08820000
H      -43.29210000     -34.62340000     -74.09170000
H      -47.25460000     -33.21510000     -73.67780000
H      -46.15570000     -37.05510000     -72.13550000
H      -43.90210000     -36.89100000     -73.04920000
C      -48.17910000     -35.23970000     -71.99270000
H      -48.05690000     -35.83690000     -71.09000000
H      -48.83150000     -35.79240000     -72.64150000
C      -44.84890000     -32.49760000     -74.77490000
H      -44.24980000     -32.62200000     -75.69030000
H      -45.80010000     -32.05110000     -75.10940000
S      -48.99550000     -33.64500000     -71.63830000
S      -43.84990000     -31.20820000     -73.83740000
C      -48.56700000     -33.12480000     -69.85440000
H      -49.42580000     -32.41890000     -69.61420000
H      -48.54380000     -34.01040000     -69.22570000
C      -45.16730000     -30.87680000     -72.50840000
H      -45.86970000     -31.74170000     -72.50210000
H      -45.81260000     -30.07520000     -72.90860000
C      -44.70540000     -30.64140000     -71.12070000
H      -44.11860000     -29.73750000     -71.13450000
H      -45.52230000     -30.34290000     -70.41080000
C      -47.21760000     -32.38230000     -69.79370000
H      -47.21260000     -31.57060000     -69.01450000
H      -47.20980000     -31.91490000     -70.76360000
C      -46.04680000     -33.24280000     -69.59250000
C      -46.08550000     -34.39760000     -68.85380000
C      -44.66930000     -32.84800000     -69.78110000
H      -46.93600000     -34.93050000     -68.58550000
C      -43.73410000     -33.81570000     -69.31720000
C      -44.00410000     -31.70990000     -70.37670000
C      -42.61120000     -31.74050000     -70.22970000
S      -44.53090000     -35.14140000     -68.40380000
S      -42.06860000     -33.23690000     -69.41880000
H      -41.85990000     -30.97180000     -70.48480000
