40
Properties=species:S:1:pos:R:3 #=T CELL(abcABC):=T 1.889726e+02=T 90.00000=T Traj:=T positionsangstrom=T Step:=T 0=T Bead:=T pbc="F F F"
C      -44.16210000     -34.77580000     -74.04250000
C      -45.07560000     -33.75430000     -74.19230000
C      -46.27130000     -33.75460000     -73.48740000
C      -46.59380000     -34.88030000     -72.70410000
C      -45.66760000     -35.88180000     -72.51540000
C      -44.47710000     -35.78950000     -73.13510000
H      -43.12700000     -34.74540000     -74.46420000
H      -46.94070000     -32.93850000     -73.54220000
H      -45.81000000     -36.71330000     -71.78410000
H      -43.69060000     -36.49020000     -72.82730000
C      -47.93050000     -35.14400000     -72.05920000
H      -47.80220000     -35.77240000     -71.15440000
H      -48.55330000     -35.77350000     -72.72850000
C      -44.77910000     -32.45780000     -74.89610000
H      -43.98420000     -32.41400000     -75.62020000
H      -45.67150000     -31.87390000     -75.12300000
S      -49.06480000     -33.75340000     -71.77440000
S      -43.89970000     -31.38500000     -73.60070000
C      -48.71190000     -33.24260000     -70.08680000
H      -49.50940000     -32.57200000     -69.84390000
H      -48.89560000     -34.08360000     -69.37610000
C      -45.32390000     -30.79130000     -72.47800000
H      -46.01660000     -31.54320000     -72.41930000
H      -45.76630000     -29.83610000     -72.83650000
C      -44.78020000     -30.54500000     -71.08340000
H      -43.90820000     -29.79410000     -71.08540000
H      -45.55350000     -29.97440000     -70.61560000
C      -47.37140000     -32.53590000     -69.93980000
H      -47.41560000     -31.81000000     -69.15920000
H      -47.05820000     -32.01980000     -70.84610000
C      -46.07110000     -33.40380000     -69.51610000
C      -46.11650000     -34.54670000     -68.81280000
C      -44.73390000     -32.87460000     -69.71350000
H      -46.96610000     -35.16550000     -68.53810000
C      -43.76450000     -33.77950000     -69.18180000
C      -44.10270000     -31.80550000     -70.41190000
C      -42.72440000     -31.76810000     -70.19100000
S      -44.49460000     -35.15290000     -68.36380000
S      -42.18690000     -33.10950000     -69.27070000
H      -41.92620000     -31.09080000     -70.60440000
