40
Properties=species:S:1:pos:R:3 #=T CELL(abcABC):=T 1.889726e+02=T 90.00000=T Traj:=T positionsangstrom=T Step:=T 0=T Bead:=T pbc="F F F"
C      -44.05620000     -34.63010000     -74.03370000
C      -45.09900000     -33.67890000     -74.17160000
C      -46.38510000     -33.97970000     -73.67530000
C      -46.53250000     -35.02390000     -72.70500000
C      -45.40770000     -35.90040000     -72.52940000
C      -44.21780000     -35.74190000     -73.17840000
H      -43.08150000     -34.38890000     -74.45780000
H      -47.23580000     -33.38780000     -73.84350000
H      -45.40720000     -36.56140000     -71.64320000
H      -43.40410000     -36.40520000     -72.88040000
C      -47.91490000     -35.27110000     -72.10370000
H      -47.84620000     -35.75570000     -71.11480000
H      -48.53510000     -35.90630000     -72.77830000
C      -44.73150000     -32.36710000     -74.74120000
H      -43.92280000     -32.30440000     -75.45450000
H      -45.50540000     -31.69390000     -75.10410000
S      -49.01340000     -33.83560000     -71.90710000
S      -43.87740000     -31.40510000     -73.40350000
C      -48.77920000     -33.37610000     -70.23670000
H      -49.64410000     -32.72280000     -70.02680000
H      -48.76350000     -34.23990000     -69.57640000
C      -45.34680000     -30.91480000     -72.37240000
H      -45.97760000     -31.78520000     -72.27490000
H      -45.95850000     -30.12130000     -72.78450000
C      -44.84880000     -30.45780000     -70.95010000
H      -44.13560000     -29.59650000     -70.80720000
H      -45.75220000     -30.16290000     -70.44120000
C      -47.44800000     -32.56530000     -69.91390000
H      -47.76710000     -32.06110000     -69.02620000
H      -47.32600000     -31.79700000     -70.64240000
C      -46.15500000     -33.28930000     -69.56580000
C      -46.14290000     -34.54570000     -68.89950000
C      -44.76390000     -32.79270000     -69.68780000
H      -46.95810000     -35.15490000     -68.70080000
C      -43.85850000     -33.63230000     -69.10500000
C      -44.12660000     -31.62890000     -70.28020000
C      -42.79460000     -31.62050000     -70.07390000
S      -44.52300000     -35.13830000     -68.48440000
S      -42.22980000     -33.12740000     -69.31610000
H      -42.02840000     -30.96000000     -70.44950000
