40
Properties=species:S:1:pos:R:3 #=T CELL(abcABC):=T 1.889726e+02=T 90.00000=T Traj:=T positionsangstrom=T Step:=T 0=T Bead:=T pbc="F F F"
C      -43.75700000     -34.45870000     -73.51980000
C      -44.65790000     -33.42530000     -73.58350000
C      -46.01670000     -33.60600000     -73.04250000
C      -46.34240000     -34.87930000     -72.62840000
C      -45.33460000     -35.87720000     -72.46130000
C      -44.00940000     -35.64290000     -72.89520000
H      -42.68180000     -34.24220000     -73.77650000
H      -46.75050000     -32.75620000     -73.02170000
H      -45.53540000     -36.80090000     -71.93550000
H      -43.20710000     -36.31450000     -72.84020000
C      -47.81110000     -35.28800000     -72.36500000
H      -47.82800000     -35.95080000     -71.49810000
H      -48.33830000     -35.78890000     -73.21140000
C      -44.29050000     -32.16550000     -74.31410000
H      -43.26670000     -32.31080000     -74.71170000
H      -45.02210000     -31.97700000     -75.15050000
S      -48.97590000     -33.91420000     -71.96990000
S      -44.00950000     -30.61690000     -73.33090000
C      -48.82410000     -33.58600000     -70.05010000
H      -49.75150000     -33.12970000     -69.73720000
H      -48.77580000     -34.52710000     -69.52930000
C      -45.60360000     -30.42550000     -72.28020000
H      -46.35190000     -31.13200000     -72.66970000
H      -45.97520000     -29.44380000     -72.50130000
C      -45.27800000     -30.58630000     -70.79610000
H      -44.67680000     -29.66800000     -70.57390000
H      -46.19500000     -30.42970000     -70.20380000
C      -47.50190000     -32.83320000     -69.75910000
H      -47.58050000     -32.30160000     -68.79110000
H      -47.27270000     -32.14590000     -70.52410000
C      -46.28440000     -33.66700000     -69.54790000
C      -46.16350000     -34.93110000     -69.03270000
C      -44.97340000     -33.14220000     -69.89320000
H      -47.01770000     -35.52650000     -68.74680000
C      -43.94690000     -33.95850000     -69.61590000
C      -44.45450000     -31.81500000     -70.27550000
C      -43.05640000     -31.72750000     -70.16630000
S      -44.47450000     -35.48870000     -68.91080000
S      -42.31520000     -33.25360000     -69.71700000
H      -42.44460000     -30.83500000     -70.36830000
