40
Properties=species:S:1:pos:R:3 #=T CELL(abcABC):=T 1.889726e+02=T 90.00000=T Traj:=T positionsangstrom=T Step:=T 0=T Bead:=T pbc="F F F"
C      -43.60380000     -33.82290000     -73.64120000
C      -44.71300000     -33.06510000     -73.96850000
C      -46.00470000     -33.51230000     -73.64720000
C      -46.16130000     -34.65430000     -72.89080000
C      -45.09160000     -35.48450000     -72.61870000
C      -43.78260000     -35.09820000     -72.95710000
H      -42.62060000     -33.39300000     -73.67510000
H      -46.84680000     -32.86070000     -73.77640000
H      -45.29110000     -36.47320000     -72.13330000
H      -42.96660000     -35.85550000     -72.79760000
C      -47.57600000     -35.09460000     -72.45230000
H      -47.58840000     -35.83290000     -71.67320000
H      -47.99980000     -35.58980000     -73.33650000
C      -44.52650000     -31.68070000     -74.48660000
H      -43.59890000     -31.62410000     -75.07430000
H      -45.39860000     -31.37580000     -75.02080000
S      -48.82450000     -33.76550000     -71.99530000
S      -44.26210000     -30.44040000     -73.17870000
C      -48.71200000     -33.71260000     -70.18400000
H      -49.72070000     -33.34380000     -69.85540000
H      -48.62640000     -34.75730000     -69.86980000
C      -45.64670000     -30.59710000     -71.82590000
H      -46.27960000     -31.38860000     -72.12050000
H      -46.26330000     -29.66550000     -71.96820000
C      -45.20570000     -30.78770000     -70.36210000
H      -44.64320000     -29.88480000     -69.96920000
H      -46.14150000     -30.88340000     -69.75900000
C      -47.51870000     -32.94890000     -69.50590000
H      -48.03460000     -32.87760000     -68.55810000
H      -47.43570000     -31.93290000     -69.98530000
C      -46.26220000     -33.78300000     -69.39570000
C      -46.27980000     -35.05680000     -68.92780000
C      -44.95980000     -33.23390000     -69.66730000
H      -47.15270000     -35.65860000     -68.57630000
C      -44.01200000     -34.24550000     -69.46130000
C      -44.32740000     -32.01210000     -70.09330000
C      -42.93670000     -32.10810000     -70.28020000
S      -44.64890000     -35.70410000     -68.82360000
S      -42.40090000     -33.79770000     -69.90830000
H      -42.31690000     -31.37880000     -70.70900000
