40
Properties=species:S:1:pos:R:3 #=T CELL(abcABC):=T 1.889726e+02=T 90.00000=T Traj:=T positionsangstrom=T Step:=T 0=T Bead:=T pbc="F F F"
C      -46.25990000     -35.76360000     -68.38820000
C      -46.88150000     -35.99170000     -69.56380000
C      -47.68230000     -34.94570000     -70.13250000
C      -47.98900000     -33.82920000     -69.36060000
C      -47.23740000     -33.56400000     -68.15740000
C      -46.43890000     -34.56730000     -67.68400000
H      -45.44600000     -36.42920000     -68.04850000
H      -48.21840000     -35.12240000     -71.03740000
H      -47.59890000     -32.70360000     -67.60780000
H      -45.97940000     -34.42870000     -66.74930000
C      -49.08110000     -32.91600000     -69.84380000
H      -49.86970000     -32.74580000     -69.08230000
H      -49.76570000     -33.31720000     -70.64140000
C      -46.64100000     -37.17640000     -70.47160000
H      -45.65030000     -37.62110000     -70.21430000
H      -47.45740000     -37.89440000     -70.31770000
S      -48.39850000     -31.25430000     -70.50560000
S      -46.54020000     -36.76780000     -72.19100000
C      -46.88240000     -31.78560000     -71.40050000
H      -47.08890000     -32.75990000     -71.88210000
H      -46.87110000     -31.16390000     -72.34000000
C      -44.83840000     -36.05530000     -72.54590000
H      -44.91890000     -35.94400000     -73.60150000
H      -44.12460000     -36.78030000     -72.28480000
C      -44.61170000     -34.71480000     -71.81790000
H      -45.37970000     -34.00780000     -72.08600000
H      -44.52500000     -34.85740000     -70.67630000
C      -45.54440000     -31.75300000     -70.67520000
H      -45.46560000     -32.76650000     -70.18920000
H      -45.64840000     -31.03100000     -69.90930000
C      -44.37170000     -31.42140000     -71.56870000
C      -43.99040000     -30.12130000     -71.73150000
C      -43.57600000     -32.36750000     -72.25030000
H      -44.46870000     -29.25420000     -71.24420000
C      -42.59250000     -31.73440000     -72.96500000
C      -43.44960000     -33.85660000     -72.35260000
C      -42.29910000     -34.29890000     -73.03610000
S      -42.60680000     -29.95710000     -72.82030000
S      -41.40160000     -32.88570000     -73.60140000
H      -41.97710000     -35.31040000     -73.12170000
