40
Properties=species:S:1:pos:R:3 #=T CELL(abcABC):=T 1.889726e+02=T 90.00000=T Traj:=T positionsangstrom=T Step:=T 0=T Bead:=T pbc="F F F"
C      -46.59340000     -35.94580000     -68.62680000
C      -47.14520000     -36.13660000     -69.94780000
C      -47.93610000     -35.08540000     -70.52600000
C      -48.10650000     -33.85680000     -69.86130000
C      -47.44870000     -33.66300000     -68.62720000
C      -46.63590000     -34.63210000     -68.07640000
H      -45.99960000     -36.73710000     -68.17770000
H      -48.33790000     -35.36950000     -71.49860000
H      -47.55290000     -32.70360000     -68.12090000
H      -46.13620000     -34.49410000     -67.10060000
C      -49.05380000     -32.80230000     -70.43870000
H      -49.98660000     -32.61040000     -69.85390000
H      -49.40080000     -33.07720000     -71.49010000
C      -47.06890000     -37.41470000     -70.73720000
H      -46.33070000     -38.02620000     -70.23910000
H      -47.82740000     -38.11930000     -70.97320000
S      -48.37230000     -31.07360000     -70.43580000
S      -46.31520000     -36.90960000     -72.39020000
C      -46.86270000     -31.19400000     -71.45420000
H      -47.01440000     -31.90950000     -72.30670000
H      -46.70260000     -30.26380000     -71.96540000
C      -44.65340000     -36.14540000     -71.98120000
H      -43.97580000     -36.37650000     -72.78800000
H      -44.18310000     -36.51570000     -71.07990000
C      -44.82270000     -34.59630000     -71.83430000
H      -45.72210000     -34.32100000     -72.43220000
H      -45.05290000     -34.37600000     -70.76710000
C      -45.55390000     -31.45500000     -70.51930000
H      -45.72040000     -32.46430000     -70.21520000
H      -45.65870000     -30.74310000     -69.65580000
C      -44.27550000     -31.29460000     -71.25440000
C      -43.55480000     -30.06470000     -71.31550000
C      -43.55170000     -32.30830000     -72.04920000
H      -43.91770000     -29.08060000     -71.00260000
C      -42.46380000     -31.80210000     -72.71520000
C      -43.61400000     -33.74850000     -72.22300000
C      -42.57850000     -34.25720000     -72.95250000
S      -42.24320000     -30.12900000     -72.40810000
S      -41.38820000     -32.97730000     -73.37900000
H      -42.42190000     -35.28390000     -73.20630000
