40
Properties=species:S:1:pos:R:3 #=T CELL(abcABC):=T 1.889726e+02=T 90.00000=T Traj:=T positionsangstrom=T Step:=T 0=T Bead:=T pbc="F F F"
C      -47.02960000     -35.47130000     -68.41490000
C      -47.22270000     -35.66860000     -69.83840000
C      -47.80350000     -34.68730000     -70.61490000
C      -48.25330000     -33.48930000     -70.03270000
C      -48.09240000     -33.27150000     -68.61120000
C      -47.45190000     -34.24110000     -67.81210000
H      -46.59230000     -36.27890000     -67.80580000
H      -47.74100000     -34.80510000     -71.67590000
H      -48.42560000     -32.33220000     -68.08330000
H      -47.14350000     -33.99150000     -66.84300000
C      -49.00220000     -32.52250000     -70.82950000
H      -50.04680000     -32.37750000     -70.42390000
H      -49.05730000     -32.88210000     -71.85720000
C      -46.83370000     -36.98360000     -70.48030000
H      -45.90330000     -37.33500000     -70.06070000
H      -47.58930000     -37.71990000     -70.24520000
S      -48.22740000     -30.81930000     -70.91630000
S      -46.59540000     -37.02850000     -72.32160000
C      -46.60640000     -31.08780000     -71.64270000
H      -46.73190000     -31.80470000     -72.43810000
H      -46.21490000     -30.15640000     -71.97680000
C      -44.91210000     -36.18060000     -72.46860000
H      -44.68150000     -36.48740000     -73.49780000
H      -44.19250000     -36.75990000     -71.78140000
C      -44.90380000     -34.65860000     -72.25720000
H      -45.57060000     -34.12280000     -72.96970000
H      -45.35850000     -34.39700000     -71.28230000
C      -45.56680000     -31.76080000     -70.67380000
H      -45.92010000     -32.73450000     -70.52330000
H      -45.81530000     -31.31470000     -69.69920000
C      -44.11750000     -31.67910000     -71.08190000
C      -43.34550000     -30.52600000     -70.87450000
C      -43.32230000     -32.66750000     -71.86970000
H      -43.71230000     -29.68130000     -70.27190000
C      -42.14950000     -32.07180000     -72.37840000
C      -43.58220000     -33.95380000     -72.45110000
C      -42.58520000     -34.36590000     -73.27770000
S      -41.86740000     -30.50980000     -71.70740000
S      -41.27120000     -33.21290000     -73.41900000
H      -42.35490000     -35.28280000     -73.76020000
