40
Properties=species:S:1:pos:R:3 #=T CELL(abcABC):=T 1.889726e+02=T 90.00000=T Traj:=T positionsangstrom=T Step:=T 0=T Bead:=T pbc="F F F"
C      -44.05730000     -33.29240000     -73.68320000
C      -45.18470000     -32.54150000     -73.61840000
C      -46.41350000     -33.15140000     -73.34860000
C      -46.52230000     -34.52500000     -73.27080000
C      -45.32180000     -35.30200000     -73.39970000
C      -44.05160000     -34.68380000     -73.58900000
H      -43.10800000     -32.77820000     -73.93630000
H      -47.37950000     -32.56430000     -73.28550000
H      -45.45610000     -36.38330000     -73.26100000
H      -43.15310000     -35.36210000     -73.63370000
C      -47.85950000     -35.16580000     -73.09520000
H      -47.63910000     -36.18620000     -72.77250000
H      -48.40360000     -35.22620000     -73.96000000
C      -45.10270000     -31.06400000     -73.80030000
H      -44.27460000     -30.77290000     -74.53040000
H      -46.02820000     -30.63660000     -74.23530000
S      -49.03220000     -34.33630000     -71.88520000
S      -44.68690000     -30.09020000     -72.26370000
C      -48.36390000     -34.82140000     -70.16240000
H      -49.17240000     -34.50200000     -69.56240000
H      -48.27720000     -35.94560000     -70.18150000
C      -45.98370000     -30.70180000     -71.07100000
H      -46.38450000     -31.59530000     -71.59700000
H      -46.72230000     -29.91420000     -71.08810000
C      -45.52580000     -30.93680000     -69.65570000
H      -45.10730000     -30.03370000     -69.22620000
H      -46.39850000     -31.15640000     -68.93150000
C      -47.25150000     -33.93370000     -69.71080000
H      -47.49800000     -33.69350000     -68.61710000
H      -47.35740000     -33.06250000     -70.23490000
C      -45.79180000     -34.40850000     -69.81310000
C      -45.40430000     -35.66710000     -70.00860000
C      -44.69440000     -33.47440000     -69.72030000
H      -46.02140000     -36.58690000     -70.14990000
C      -43.47280000     -34.15010000     -69.74000000
C      -44.51520000     -32.03770000     -69.55880000
C      -43.19790000     -31.64640000     -69.55130000
S      -43.70570000     -35.93110000     -69.99410000
S      -42.12010000     -33.05180000     -69.61080000
H      -42.75330000     -30.64700000     -69.35240000
