40
Properties=species:S:1:pos:R:3 #=T CELL(abcABC):=T 1.889726e+02=T 90.00000=T Traj:=T positionsangstrom=T Step:=T 0=T Bead:=T pbc="F F F"
C      -44.25080000     -32.92790000     -73.77640000
C      -45.37540000     -32.10660000     -73.52470000
C      -46.57960000     -32.80520000     -73.20080000
C      -46.58840000     -34.19740000     -73.04220000
C      -45.39230000     -34.94420000     -73.25880000
C      -44.20220000     -34.29520000     -73.59060000
H      -43.37640000     -32.39200000     -74.15090000
H      -47.43390000     -32.22700000     -72.97640000
H      -45.55270000     -36.00630000     -73.21410000
H      -43.34530000     -34.92360000     -73.82480000
C      -47.87930000     -34.98640000     -72.97890000
H      -47.54870000     -35.94880000     -72.76440000
H      -48.54520000     -34.95410000     -73.82580000
C      -45.42680000     -30.63030000     -73.67240000
H      -44.60090000     -30.32800000     -74.30980000
H      -46.39990000     -30.35660000     -74.07490000
S      -49.10170000     -34.62590000     -71.49580000
S      -45.11890000     -29.76390000     -72.09050000
C      -48.08360000     -35.22070000     -70.09910000
H      -48.87290000     -35.31900000     -69.33740000
H      -47.65740000     -36.10970000     -70.39160000
C      -46.24360000     -30.58150000     -70.79980000
H      -46.88050000     -31.34850000     -71.24350000
H      -46.92350000     -29.81040000     -70.46790000
C      -45.48660000     -31.24470000     -69.64710000
H      -45.02620000     -30.40180000     -69.10430000
H      -46.17930000     -31.76480000     -68.92560000
C      -47.01710000     -34.33400000     -69.35880000
H      -47.33500000     -34.36050000     -68.20960000
H      -47.21650000     -33.27010000     -69.46280000
C      -45.55110000     -34.69870000     -69.58470000
C      -45.00170000     -35.95070000     -69.51360000
C      -44.58080000     -33.66420000     -69.98610000
H      -45.56220000     -36.88260000     -69.33990000
C      -43.34950000     -34.25300000     -70.16320000
C      -44.47240000     -32.24390000     -70.05990000
C      -43.16730000     -31.80290000     -70.28570000
S      -43.32790000     -36.05300000     -69.93950000
S      -42.01840000     -33.19280000     -70.40790000
H      -42.76550000     -30.79690000     -70.24360000
