40
Properties=species:S:1:pos:R:3 #=T CELL(abcABC):=T 1.889726e+02=T 90.00000=T Traj:=T positionsangstrom=T Step:=T 0=T Bead:=T pbc="F F F"
C      -47.69240000     -35.22200000     -68.93770000
C      -48.01010000     -35.25600000     -70.27610000
C      -48.38720000     -34.10590000     -70.97900000
C      -48.61100000     -32.94790000     -70.30400000
C      -48.35710000     -32.88350000     -68.91670000
C      -47.76340000     -33.92110000     -68.30190000
H      -47.27570000     -36.12410000     -68.36850000
H      -48.78110000     -34.17820000     -72.01280000
H      -48.58410000     -31.95170000     -68.28740000
H      -47.34160000     -33.93710000     -67.32640000
C      -49.02570000     -31.69460000     -71.10400000
H      -49.86240000     -31.30120000     -70.59230000
H      -49.43160000     -31.95030000     -72.09930000
C      -47.89260000     -36.58820000     -71.00330000
H      -47.52230000     -37.45610000     -70.40200000
H      -48.79820000     -36.93650000     -71.41440000
S      -47.74540000     -30.38240000     -71.17970000
S      -46.83450000     -36.50000000     -72.50330000
C      -46.16160000     -31.11920000     -71.84070000
H      -46.34180000     -31.82320000     -72.66450000
H      -45.61920000     -30.31120000     -72.31010000
C      -45.45150000     -35.53260000     -71.98100000
H      -44.65350000     -36.21560000     -71.63120000
H      -45.76390000     -35.06040000     -71.05130000
C      -44.98670000     -34.58750000     -73.04500000
H      -44.90370000     -34.99870000     -74.04910000
H      -45.78130000     -33.86040000     -73.35450000
C      -45.29980000     -31.80120000     -70.75920000
H      -45.84950000     -32.67310000     -70.46680000
H      -45.42030000     -31.28350000     -69.79390000
C      -43.81690000     -32.01970000     -70.97410000
C      -42.93570000     -31.19820000     -70.32230000
C      -43.19560000     -32.94500000     -71.85830000
H      -43.24560000     -30.42800000     -69.63230000
C      -41.79100000     -32.79070000     -71.85970000
C      -43.61690000     -33.99930000     -72.82460000
C      -42.48520000     -34.63640000     -73.33120000
S      -41.25820000     -31.64080000     -70.63780000
S      -40.96650000     -33.95090000     -72.78230000
H      -42.51020000     -35.52000000     -74.00740000
