40
Properties=species:S:1:pos:R:3 #=T CELL(abcABC):=T 1.889726e+02=T 90.00000=T Traj:=T positionsangstrom=T Step:=T 0=T Bead:=T pbc="F F F"
C      -48.89000000     -35.32150000     -69.49220000
C      -48.30560000     -35.41800000     -70.75390000
C      -48.23750000     -34.27060000     -71.59300000
C      -48.78450000     -33.07590000     -71.16630000
C      -49.33650000     -32.96820000     -69.90410000
C      -49.26710000     -34.04040000     -69.01230000
H      -48.85920000     -36.16960000     -68.81120000
H      -47.67630000     -34.31080000     -72.51380000
H      -49.78700000     -32.00020000     -69.55640000
H      -49.59440000     -33.91210000     -68.00250000
C      -48.70710000     -31.90460000     -72.08050000
H      -49.66780000     -31.41960000     -72.32620000
H      -48.29420000     -32.22610000     -73.07540000
C      -47.63750000     -36.71560000     -71.13340000
H      -47.45720000     -37.18970000     -70.20620000
H      -48.42100000     -37.27820000     -71.62560000
S      -47.69420000     -30.47500000     -71.52780000
S      -46.22440000     -36.70320000     -72.28760000
C      -45.92180000     -31.14950000     -71.61770000
H      -45.70780000     -31.86710000     -72.45520000
H      -45.23660000     -30.21410000     -71.60740000
C      -45.02010000     -35.37330000     -71.73330000
H      -44.20680000     -35.83670000     -71.27780000
H      -45.40560000     -34.68580000     -70.97330000
C      -44.68070000     -34.53300000     -72.93930000
H      -44.43700000     -35.19840000     -73.75120000
H      -45.56880000     -33.90020000     -73.12460000
C      -45.41320000     -31.88680000     -70.36880000
H      -45.80990000     -32.86140000     -70.26420000
H      -45.54160000     -31.28920000     -69.44250000
C      -43.91720000     -32.07930000     -70.49560000
C      -43.06230000     -31.58350000     -69.51850000
C      -43.16610000     -32.82600000     -71.58920000
H      -43.38320000     -31.07530000     -68.65470000
C      -41.75180000     -32.64680000     -71.34220000
C      -43.37860000     -33.81540000     -72.58060000
C      -42.20410000     -34.15470000     -73.24730000
S      -41.33070000     -31.71400000     -69.91850000
S      -40.74570000     -33.37820000     -72.56890000
H      -42.15530000     -34.92980000     -74.01750000
