40
Properties=species:S:1:pos:R:3 #=T CELL(abcABC):=T 1.889726e+02=T 90.00000=T Traj:=T positionsangstrom=T Step:=T 0=T Bead:=T pbc="F F F"
C      -45.35750000     -32.57190000     -74.02660000
C      -46.59830000     -32.28000000     -73.45870000
C      -47.26630000     -33.25770000     -72.62930000
C      -46.78880000     -34.54020000     -72.52300000
C      -45.55610000     -34.83330000     -73.08280000
C      -44.86600000     -33.87990000     -73.81200000
H      -44.86400000     -31.78890000     -74.59530000
H      -48.20380000     -33.00920000     -72.12520000
H      -45.24720000     -35.89100000     -72.94060000
H      -43.91380000     -34.06760000     -74.21410000
C      -47.55310000     -35.51410000     -71.73540000
H      -46.94100000     -36.38160000     -71.54690000
H      -48.34150000     -35.85490000     -72.41960000
C      -47.04620000     -30.82400000     -73.45770000
H      -46.71930000     -30.23300000     -74.31150000
H      -48.11730000     -30.86610000     -73.39340000
S      -48.34830000     -34.91580000     -70.21910000
S      -46.19700000     -29.98930000     -71.94650000
C      -47.02270000     -35.52210000     -69.02590000
H      -47.52820000     -36.02650000     -68.20770000
H      -46.56110000     -36.40050000     -69.51020000
C      -46.40650000     -31.17410000     -70.55800000
H      -46.66810000     -32.21790000     -70.82630000
H      -47.19530000     -30.81600000     -69.91690000
C      -45.20910000     -31.24130000     -69.59450000
H      -44.87980000     -30.28480000     -69.28870000
H      -45.47250000     -31.61090000     -68.55710000
C      -45.92330000     -34.49190000     -68.62320000
H      -45.48940000     -34.74040000     -67.61770000
H      -46.27640000     -33.43440000     -68.55160000
C      -44.73030000     -34.60170000     -69.53560000
C      -44.20450000     -35.81800000     -69.80890000
C      -44.01990000     -33.51650000     -70.19860000
H      -44.51020000     -36.79190000     -69.53640000
C      -43.01340000     -33.98700000     -71.08860000
C      -44.08290000     -32.08160000     -70.20390000
C      -43.14440000     -31.46780000     -71.06600000
S      -42.83110000     -35.69090000     -70.90810000
S      -42.17690000     -32.65800000     -71.87730000
H      -43.04540000     -30.39020000     -71.13560000
