40
Properties=species:S:1:pos:R:3 #=T CELL(abcABC):=T 1.889726e+02=T 90.00000=T Traj:=T positionsangstrom=T Step:=T 0=T Bead:=T pbc="F F F"
C      -48.62950000     -35.73510000     -70.11330000
C      -47.95670000     -35.76970000     -71.35290000
C      -48.04490000     -34.57350000     -72.16050000
C      -48.62310000     -33.44170000     -71.61560000
C      -49.17020000     -33.38970000     -70.34360000
C      -49.20030000     -34.56780000     -69.59120000
H      -48.51080000     -36.59580000     -69.35410000
H      -47.56670000     -34.42180000     -73.10930000
H      -49.60530000     -32.48830000     -69.94680000
H      -49.38920000     -34.51020000     -68.51710000
C      -48.70820000     -32.16510000     -72.47400000
H      -49.68600000     -31.80180000     -72.80780000
H      -48.24070000     -32.32760000     -73.44330000
C      -47.23630000     -36.99410000     -71.83030000
H      -46.77420000     -37.48820000     -70.96460000
H      -48.05180000     -37.70720000     -72.05200000
S      -47.91230000     -30.58130000     -71.80130000
S      -46.02390000     -36.76350000     -73.25730000
C      -46.03670000     -30.99600000     -71.79290000
H      -45.70370000     -31.60440000     -72.67490000
H      -45.58480000     -30.01740000     -71.89220000
C      -44.53610000     -35.95370000     -72.46790000
H      -43.79890000     -35.88410000     -73.32750000
H      -44.08930000     -36.69310000     -71.76640000
C      -44.71540000     -34.55640000     -71.77640000
H      -45.30660000     -33.93020000     -72.50250000
H      -45.31110000     -34.65860000     -70.82540000
C      -45.67790000     -31.60830000     -70.45980000
H      -46.14500000     -32.62450000     -70.41410000
H      -46.04550000     -31.04000000     -69.64060000
C      -44.14270000     -31.71340000     -70.29000000
C      -43.48010000     -30.64320000     -69.70570000
C      -43.21140000     -32.68490000     -70.79210000
H      -43.84850000     -29.67290000     -69.31640000
C      -41.90000000     -32.28270000     -70.63120000
C      -43.34040000     -33.92480000     -71.52930000
C      -42.13660000     -34.45120000     -71.85860000
S      -41.69420000     -30.76300000     -69.76130000
S      -40.76620000     -33.45020000     -71.30290000
H      -41.92160000     -35.44180000     -72.27680000
