40
Properties=species:S:1:pos:R:3 #=T CELL(abcABC):=T 1.889726e+02=T 90.00000=T Traj:=T positionsangstrom=T Step:=T 0=T Bead:=T pbc="F F F"
C      -45.52580000     -32.78490000     -73.88150000
C      -46.54560000     -32.32610000     -73.08850000
C      -47.28550000     -33.28090000     -72.33750000
C      -46.99260000     -34.61220000     -72.31860000
C      -45.94260000     -35.10490000     -73.14870000
C      -45.23620000     -34.16540000     -73.90680000
H      -44.84710000     -32.15240000     -74.30320000
H      -48.16010000     -32.93810000     -71.78070000
H      -45.72280000     -36.22070000     -73.23090000
H      -44.50260000     -34.48580000     -74.67440000
C      -47.79350000     -35.56720000     -71.50700000
H      -47.39680000     -36.57130000     -71.65060000
H      -48.85260000     -35.54190000     -71.91900000
C      -46.97180000     -30.82490000     -73.04200000
H      -46.55690000     -30.17910000     -73.78580000
H      -48.06040000     -30.92500000     -73.17800000
S      -48.18100000     -35.19590000     -69.72970000
S      -46.47550000     -29.80380000     -71.54390000
C      -46.70260000     -35.23200000     -68.64230000
H      -47.11090000     -35.15520000     -67.62450000
H      -46.26200000     -36.18570000     -68.64980000
C      -46.18300000     -30.93880000     -70.10840000
H      -46.58800000     -31.86870000     -70.31080000
H      -46.60910000     -30.53760000     -69.17620000
C      -44.67930000     -31.04420000     -69.73480000
H      -44.28860000     -30.01850000     -69.74030000
H      -44.73840000     -31.40860000     -68.71260000
C      -45.72750000     -34.08690000     -68.81530000
H      -45.30080000     -33.71440000     -67.81970000
H      -46.27090000     -33.19080000     -69.20820000
C      -44.67510000     -34.42660000     -69.79960000
C      -44.18460000     -35.69140000     -70.05710000
C      -43.85240000     -33.41080000     -70.44620000
H      -44.69220000     -36.55790000     -69.64980000
C      -43.00280000     -33.96560000     -71.38350000
C      -43.85760000     -31.94780000     -70.62380000
C      -43.03720000     -31.47110000     -71.59530000
S      -42.97770000     -35.78060000     -71.29750000
S      -42.17780000     -32.82990000     -72.42360000
H      -42.85400000     -30.42160000     -71.79260000
