40
Properties=species:S:1:pos:R:3 #=T CELL(abcABC):=T 1.889726e+02=T 90.00000=T Traj:=T positionsangstrom=T Step:=T 0=T Bead:=T pbc="F F F"
C      -46.17310000     -32.91670000     -73.72660000
C      -46.91650000     -32.43830000     -72.61130000
C      -47.47800000     -33.39560000     -71.79000000
C      -47.13600000     -34.76710000     -71.89360000
C      -46.34130000     -35.22260000     -72.94610000
C      -45.90520000     -34.26380000     -73.90510000
H      -45.71690000     -32.14340000     -74.31980000
H      -48.14910000     -33.24000000     -70.95970000
H      -46.12210000     -36.26610000     -73.09500000
H      -45.26110000     -34.53780000     -74.78130000
C      -47.82220000     -35.74180000     -71.01060000
H      -47.19030000     -36.69060000     -70.93270000
H      -48.85570000     -36.07690000     -71.39710000
C      -47.32430000     -31.00690000     -72.45240000
H      -47.49360000     -30.40680000     -73.38240000
H      -48.39980000     -30.84980000     -72.02930000
S      -47.92350000     -35.25940000     -69.24240000
S      -46.10550000     -29.96950000     -71.49700000
C      -46.25890000     -35.45210000     -68.60870000
H      -46.34590000     -35.39950000     -67.51440000
H      -45.90970000     -36.43670000     -68.80980000
C      -46.08460000     -30.76590000     -69.83880000
H      -46.70010000     -31.70630000     -69.83570000
H      -46.50300000     -30.05910000     -69.18690000
C      -44.56410000     -31.09480000     -69.54020000
H      -44.07040000     -30.17490000     -69.41650000
H      -44.38060000     -31.62950000     -68.56500000
C      -45.25090000     -34.31980000     -68.92460000
H      -44.49850000     -34.23230000     -68.07140000
H      -45.73660000     -33.41620000     -69.07800000
C      -44.36830000     -34.53640000     -70.12010000
C      -43.97160000     -35.74130000     -70.66660000
C      -43.80230000     -33.34370000     -70.76980000
H      -44.51280000     -36.68650000     -70.49100000
C      -42.98600000     -33.75190000     -71.83950000
C      -43.84920000     -31.89160000     -70.64600000
C      -43.24520000     -31.33380000     -71.75710000
S      -42.94550000     -35.45160000     -72.12670000
S      -42.35740000     -32.44810000     -72.75900000
H      -42.96360000     -30.30320000     -71.84150000
