40
Properties=species:S:1:pos:R:3 #=T CELL(abcABC):=T 1.889726e+02=T 90.00000=T Traj:=T positionsangstrom=T Step:=T 0=T Bead:=T pbc="F F F"
C      -44.61090000     -29.75500000     -73.84000000
C      -44.60450000     -31.14920000     -73.66230000
C      -44.04840000     -31.76540000     -72.47150000
C      -43.64630000     -30.93040000     -71.41450000
C      -43.74120000     -29.53650000     -71.61520000
C      -44.24400000     -28.91690000     -72.76350000
H      -45.03490000     -29.39190000     -74.76000000
H      -44.16730000     -32.85200000     -72.19130000
H      -43.32230000     -28.87670000     -70.85380000
H      -44.34560000     -27.91420000     -72.86990000
C      -43.15800000     -31.44990000     -70.08110000
H      -42.46280000     -30.65310000     -69.74520000
H      -42.73050000     -32.49890000     -70.20720000
C      -45.26510000     -32.03130000     -74.73980000
H      -46.07510000     -31.42380000     -75.16490000
H      -44.68540000     -32.13040000     -75.63660000
S      -44.54400000     -31.48280000     -68.78570000
S      -45.82790000     -33.58960000     -74.16310000
C      -46.15760000     -31.64350000     -69.70650000
H      -46.72020000     -30.71760000     -69.45350000
H      -46.05240000     -31.49250000     -70.77990000
C      -47.19680000     -33.10850000     -73.00090000
H      -47.97380000     -32.55080000     -73.49650000
H      -46.81950000     -32.47550000     -72.21460000
C      -47.89570000     -34.23750000     -72.30630000
H      -48.61980000     -33.79310000     -71.57260000
H      -48.52470000     -34.76770000     -73.02850000
C      -46.89520000     -32.96450000     -69.35600000
H      -47.73790000     -32.95800000     -69.96810000
H      -47.33070000     -32.90250000     -68.37140000
C      -46.01060000     -34.12530000     -69.53690000
C      -45.13560000     -34.57990000     -68.50600000
C      -46.04850000     -35.07420000     -70.56800000
H      -44.92960000     -34.18800000     -67.51170000
C      -45.22000000     -36.19210000     -70.34260000
C      -46.88430000     -35.23230000     -71.75110000
C      -46.62680000     -36.46420000     -72.38260000
S      -44.37760000     -36.08110000     -68.79090000
S      -45.49970000     -37.46770000     -71.46330000
H      -46.98430000     -36.78860000     -73.39100000
