40
Properties=species:S:1:pos:R:3 #=T CELL(abcABC):=T 1.889726e+02=T 90.00000=T Traj:=T positionsangstrom=T Step:=T 0=T Bead:=T pbc="F F F"
C      -47.23950000     -32.84040000     -73.70500000
C      -47.69880000     -32.53700000     -72.44220000
C      -47.68470000     -33.53970000     -71.49520000
C      -47.14880000     -34.79200000     -71.61830000
C      -46.74590000     -35.08800000     -72.97960000
C      -46.79880000     -34.14720000     -74.00190000
H      -47.25450000     -32.07320000     -74.45480000
H      -48.13820000     -33.21420000     -70.57490000
H      -46.20160000     -36.06090000     -73.27200000
H      -46.57160000     -34.40190000     -75.02720000
C      -47.18030000     -35.81930000     -70.52080000
H      -46.29940000     -36.49960000     -70.50660000
H      -48.01580000     -36.51460000     -70.57990000
C      -47.93830000     -31.09900000     -71.90610000
H      -48.51730000     -30.60800000     -72.67950000
H      -48.41420000     -31.03320000     -70.92190000
S      -47.26250000     -35.17760000     -68.80880000
S      -46.32040000     -30.23410000     -71.65110000
C      -45.56750000     -35.21530000     -68.20880000
H      -45.62990000     -35.07060000     -67.12790000
H      -45.14290000     -36.23510000     -68.30360000
C      -45.77430000     -30.90480000     -70.03890000
H      -46.16060000     -31.90840000     -69.89780000
H      -46.30340000     -30.30100000     -69.27720000
C      -44.30820000     -30.89990000     -70.03340000
H      -44.01220000     -29.86650000     -70.19970000
H      -43.91410000     -31.23070000     -69.04300000
C      -44.61940000     -34.07370000     -68.71480000
H      -43.92750000     -33.89030000     -67.94630000
H      -45.11370000     -33.10810000     -68.73650000
C      -43.96320000     -34.31170000     -70.04490000
C      -43.77010000     -35.54870000     -70.53910000
C      -43.66410000     -33.27800000     -70.96620000
H      -43.77630000     -36.42850000     -69.93030000
C      -43.11610000     -33.79210000     -72.10020000
C      -43.63480000     -31.81610000     -71.04060000
C      -43.13270000     -31.33500000     -72.21560000
S      -43.00820000     -35.49850000     -72.15010000
S      -42.61290000     -32.61950000     -73.27820000
H      -43.43470000     -30.32880000     -72.52570000
