40
Properties=species:S:1:pos:R:3 #=T CELL(abcABC):=T 1.889726e+02=T 90.00000=T Traj:=T positionsangstrom=T Step:=T 0=T Bead:=T pbc="F F F"
C      -47.24140000     -32.97110000     -73.72700000
C      -47.59390000     -32.49250000     -72.46680000
C      -47.47460000     -33.42010000     -71.46040000
C      -47.03250000     -34.75990000     -71.63520000
C      -46.72870000     -35.14030000     -72.92860000
C      -46.89720000     -34.30890000     -74.00700000
H      -47.21840000     -32.21600000     -74.53880000
H      -47.77240000     -33.13780000     -70.38550000
H      -46.51300000     -36.24520000     -73.07260000
H      -46.71570000     -34.77600000     -74.97630000
C      -46.96510000     -35.82510000     -70.55590000
H      -46.10400000     -36.47530000     -70.79150000
H      -47.82940000     -36.46270000     -70.82310000
C      -47.96260000     -31.08970000     -72.19450000
H      -48.32190000     -30.50540000     -73.05850000
H      -48.84750000     -30.96000000     -71.51700000
S      -47.13410000     -35.13350000     -68.84100000
S      -46.46430000     -30.05930000     -71.54890000
C      -45.49840000     -35.12520000     -68.09580000
H      -45.78620000     -34.84630000     -67.01140000
H      -45.08430000     -36.08390000     -68.14040000
C      -45.86730000     -31.01040000     -70.07870000
H      -46.25140000     -32.07040000     -70.18960000
H      -46.26110000     -30.51500000     -69.17040000
C      -44.31910000     -30.95260000     -70.00010000
H      -43.91660000     -29.95260000     -70.07860000
H      -44.12100000     -31.34260000     -68.94780000
C      -44.43400000     -34.07710000     -68.61170000
H      -43.49180000     -34.04290000     -67.93290000
H      -44.92460000     -33.09460000     -68.57970000
C      -43.94600000     -34.32650000     -70.02700000
C      -43.67720000     -35.58090000     -70.46310000
C      -43.64210000     -33.30670000     -70.97800000
H      -43.69540000     -36.43670000     -69.87370000
C      -43.17700000     -33.85420000     -72.16320000
C      -43.62260000     -31.82980000     -71.03580000
C      -43.17660000     -31.30190000     -72.23580000
S      -43.11890000     -35.59060000     -72.12630000
S      -42.78390000     -32.60140000     -73.31950000
H      -43.21310000     -30.23070000     -72.48170000
