40
Properties=species:S:1:pos:R:3 #=T CELL(abcABC):=T 1.889726e+02=T 90.00000=T Traj:=T positionsangstrom=T Step:=T 0=T Bead:=T pbc="F F F"
C      -46.68810000     -33.01810000     -73.44190000
C      -47.28340000     -32.49450000     -72.34400000
C      -47.56480000     -33.50250000     -71.30600000
C      -47.18520000     -34.82080000     -71.38530000
C      -46.54620000     -35.25350000     -72.53450000
C      -46.34060000     -34.36480000     -73.57220000
H      -46.37950000     -32.42550000     -74.29200000
H      -48.21860000     -33.19290000     -70.52440000
H      -46.24420000     -36.23560000     -72.55620000
H      -45.90750000     -34.69280000     -74.46370000
C      -47.42430000     -35.78990000     -70.22770000
H      -46.68590000     -36.61980000     -70.27830000
H      -48.47520000     -36.22650000     -70.25330000
C      -47.71820000     -31.10730000     -72.25390000
H      -47.89390000     -30.68910000     -73.26900000
H      -48.65690000     -31.03810000     -71.71200000
S      -47.23240000     -34.98530000     -68.53020000
S      -46.53650000     -29.88740000     -71.59890000
C      -45.40760000     -35.17620000     -68.14350000
H      -45.27720000     -35.00610000     -67.07330000
H      -45.12950000     -36.32940000     -68.33410000
C      -45.95990000     -30.77550000     -70.01300000
H      -46.54350000     -31.67640000     -69.92760000
H      -46.24740000     -30.04250000     -69.20350000
C      -44.42070000     -30.98190000     -70.11920000
H      -43.87100000     -29.99900000     -70.23490000
H      -44.09940000     -31.41410000     -69.15290000
C      -44.45750000     -34.20710000     -68.84500000
H      -43.58510000     -34.32700000     -68.19460000
H      -44.76410000     -33.18600000     -68.59670000
C      -43.95960000     -34.43350000     -70.19590000
C      -43.52040000     -35.66870000     -70.63250000
C      -43.69350000     -33.36290000     -71.14890000
H      -43.88000000     -36.66090000     -70.24310000
C      -43.24000000     -33.86350000     -72.39460000
C      -43.93390000     -31.93850000     -71.21170000
C      -43.55070000     -31.36600000     -72.44930000
S      -43.05830000     -35.59830000     -72.37980000
S      -42.82030000     -32.60580000     -73.49970000
H      -43.86250000     -30.46060000     -73.06230000
