40
Properties=species:S:1:pos:R:3 #=T CELL(abcABC):=T 1.889726e+02=T 90.00000=T Traj:=T positionsangstrom=T Step:=T 0=T Bead:=T pbc="F F F"
C      -46.85600000     -33.07350000     -73.33130000
C      -47.47120000     -32.57080000     -72.20510000
C      -47.84020000     -33.40730000     -71.09600000
C      -47.47120000     -34.73880000     -71.08500000
C      -46.87820000     -35.21070000     -72.23450000
C      -46.47360000     -34.43590000     -73.33620000
H      -46.40990000     -32.43120000     -74.11060000
H      -48.34510000     -32.89010000     -70.18570000
H      -46.69800000     -36.31900000     -72.34870000
H      -46.04400000     -34.91630000     -74.17970000
C      -47.97060000     -35.61740000     -70.01590000
H      -47.95270000     -36.72750000     -70.19960000
H      -48.99250000     -35.25140000     -69.74840000
C      -47.84420000     -31.09570000     -72.22760000
H      -48.23090000     -30.69110000     -73.20030000
H      -48.70540000     -30.96010000     -71.48460000
S      -47.30000000     -35.25000000     -68.32750000
S      -46.47320000     -29.91920000     -71.81510000
C      -45.46910000     -35.45310000     -68.62570000
H      -44.87940000     -35.97780000     -67.78070000
H      -45.49930000     -36.10200000     -69.52680000
C      -45.78770000     -30.61490000     -70.21770000
H      -46.29620000     -31.61540000     -70.08040000
H      -45.90040000     -29.76530000     -69.50390000
C      -44.32070000     -30.92520000     -70.31260000
H      -43.84380000     -29.90770000     -70.53590000
H      -43.86100000     -31.07600000     -69.33350000
C      -44.74480000     -34.08590000     -68.94930000
H      -44.03330000     -33.70690000     -68.14280000
H      -45.44430000     -33.27130000     -69.10390000
C      -43.97660000     -34.30620000     -70.29060000
C      -43.37150000     -35.51360000     -70.60790000
C      -43.71370000     -33.32380000     -71.31800000
H      -43.48020000     -36.41130000     -70.13880000
C      -43.00700000     -33.84030000     -72.36450000
C      -43.84930000     -31.87310000     -71.44690000
C      -43.34920000     -31.43110000     -72.63950000
S      -42.49970000     -35.50460000     -72.14020000
S      -42.74580000     -32.68680000     -73.65970000
H      -43.23610000     -30.42030000     -72.85950000
