40
Properties=species:S:1:pos:R:3 #=T CELL(abcABC):=T 1.889726e+02=T 90.00000=T Traj:=T positionsangstrom=T Step:=T 0=T Bead:=T pbc="F F F"
C      -43.30120000     -30.78110000     -73.12070000
C      -43.87010000     -32.04080000     -72.94680000
C      -43.99460000     -32.64040000     -71.67330000
C      -43.38890000     -31.98810000     -70.53850000
C      -42.99720000     -30.66640000     -70.72960000
C      -42.83440000     -30.09310000     -71.96680000
H      -43.14470000     -30.39640000     -74.14210000
H      -44.69740000     -33.50170000     -71.46870000
H      -42.78540000     -30.08680000     -69.78910000
H      -42.57700000     -29.03700000     -72.07400000
C      -43.41420000     -32.63560000     -69.18300000
H      -42.50890000     -32.49490000     -68.68010000
H      -43.60050000     -33.72430000     -69.22300000
C      -44.58840000     -32.64140000     -74.15690000
H      -44.06470000     -32.42050000     -75.05930000
H      -44.54640000     -33.71470000     -74.04600000
S      -44.59920000     -31.81570000     -68.05120000
S      -46.30430000     -31.89440000     -74.44330000
C      -46.17850000     -31.88620000     -69.05300000
H      -46.81130000     -31.06990000     -68.71190000
H      -45.82370000     -31.63370000     -70.07650000
C      -47.00320000     -31.84100000     -72.76520000
H      -47.64540000     -31.00740000     -72.77340000
H      -46.26330000     -31.48310000     -72.03600000
C      -47.86790000     -33.11080000     -72.38280000
H      -48.32350000     -32.78890000     -71.41510000
H      -48.70710000     -33.28230000     -73.08020000
C      -46.98000000     -33.17490000     -68.96260000
H      -47.99440000     -32.86570000     -69.49860000
H      -47.15660000     -33.34340000     -67.95760000
C      -46.30080000     -34.46030000     -69.57530000
C      -45.52330000     -35.32850000     -68.81610000
C      -46.45560000     -34.87100000     -70.92120000
H      -45.34990000     -35.37410000     -67.77040000
C      -45.74130000     -36.05400000     -71.22340000
C      -47.09630000     -34.38780000     -72.13300000
C      -46.86310000     -35.10300000     -73.23980000
S      -44.88310000     -36.61770000     -69.85060000
S      -45.74900000     -36.44490000     -72.89150000
H      -47.22640000     -34.76610000     -74.20910000
