40
Properties=species:S:1:pos:R:3 #=T CELL(abcABC):=T 1.889726e+02=T 90.00000=T Traj:=T positionsangstrom=T Step:=T 0=T Bead:=T pbc="F F F"
C      -43.23600000     -30.67230000     -72.97530000
C      -43.76920000     -31.95340000     -72.80160000
C      -43.78380000     -32.50350000     -71.53140000
C      -43.18730000     -31.80550000     -70.42470000
C      -42.73960000     -30.51870000     -70.59820000
C      -42.63090000     -30.01820000     -71.88900000
H      -43.10970000     -30.20970000     -73.90660000
H      -44.16760000     -33.51780000     -71.45220000
H      -42.51660000     -29.79620000     -69.83220000
H      -42.38890000     -28.96110000     -72.06900000
C      -43.19370000     -32.40050000     -69.04660000
H      -42.33890000     -32.04510000     -68.43240000
H      -43.13620000     -33.51380000     -69.05830000
C      -44.32680000     -32.61090000     -73.99120000
H      -43.60680000     -32.48660000     -74.82220000
H      -44.34200000     -33.71550000     -73.78920000
S      -44.62460000     -31.96110000     -67.99960000
S      -46.06520000     -31.98490000     -74.51190000
C      -46.10470000     -32.03130000     -69.18320000
H      -46.64460000     -31.09170000     -68.98700000
H      -45.67270000     -31.93620000     -70.21400000
C      -46.99100000     -31.64040000     -72.90260000
H      -47.71130000     -30.78040000     -72.95860000
H      -46.21770000     -31.44440000     -72.23150000
C      -47.82480000     -32.89150000     -72.32650000
H      -48.20440000     -32.55400000     -71.31120000
H      -48.74860000     -32.99530000     -72.91130000
C      -47.00040000     -33.28530000     -68.97010000
H      -47.90970000     -33.11310000     -69.49650000
H      -47.15880000     -33.42240000     -67.82930000
C      -46.38860000     -34.52840000     -69.56860000
C      -45.72220000     -35.51040000     -68.89750000
C      -46.55710000     -34.84040000     -71.02710000
H      -45.40610000     -35.41090000     -67.83880000
C      -45.95370000     -36.06040000     -71.31460000
C      -47.14690000     -34.17990000     -72.18920000
C      -46.91760000     -35.01890000     -73.28620000
S      -45.22040000     -36.84720000     -69.95270000
S      -46.05740000     -36.47670000     -72.96340000
H      -47.22240000     -34.89270000     -74.32200000
