40
Properties=species:S:1:pos:R:3 #=T CELL(abcABC):=T 1.889726e+02=T 90.00000=T Traj:=T positionsangstrom=T Step:=T 0=T Bead:=T pbc="F F F"
C      -43.19510000     -30.60370000     -72.75430000
C      -43.62360000     -31.95120000     -72.69610000
C      -43.56890000     -32.58580000     -71.45160000
C      -43.15980000     -31.95170000     -70.29470000
C      -42.57700000     -30.67860000     -70.42570000
C      -42.53630000     -30.09800000     -71.67690000
H      -43.45730000     -30.02160000     -73.63640000
H      -43.85370000     -33.68940000     -71.38300000
H      -42.12530000     -30.08080000     -69.66270000
H      -42.21860000     -29.02420000     -71.83730000
C      -43.33330000     -32.63040000     -68.95760000
H      -42.54320000     -32.35010000     -68.27620000
H      -43.40760000     -33.74690000     -69.03530000
C      -44.26150000     -32.65310000     -73.86440000
H      -43.58270000     -32.79030000     -74.70750000
H      -44.52560000     -33.65300000     -73.53260000
S      -44.82030000     -31.97010000     -67.99550000
S      -45.77750000     -31.76970000     -74.38180000
C      -46.17450000     -31.91520000     -69.20190000
H      -46.76590000     -31.04200000     -69.01490000
H      -45.85220000     -31.85100000     -70.22000000
C      -46.79920000     -31.67630000     -72.74950000
H      -47.29130000     -30.63350000     -72.80980000
H      -46.07760000     -31.60900000     -71.90370000
C      -47.81410000     -32.85860000     -72.60710000
H      -48.58920000     -32.68000000     -71.84530000
H      -48.39830000     -32.73190000     -73.52400000
C      -47.08780000     -33.17680000     -69.13410000
H      -48.00630000     -32.89690000     -69.61820000
H      -47.34340000     -33.33130000     -68.02350000
C      -46.52690000     -34.42580000     -69.79660000
C      -45.66970000     -35.23230000     -69.14900000
C      -46.76480000     -34.84910000     -71.16390000
H      -45.22600000     -35.00370000     -68.18560000
C      -46.02310000     -36.06700000     -71.39020000
C      -47.24060000     -34.27060000     -72.44830000
C      -46.93570000     -35.18280000     -73.47490000
S      -45.11010000     -36.65340000     -69.97510000
S      -46.33040000     -36.74100000     -72.94980000
H      -47.16220000     -35.04590000     -74.50500000
