40
Properties=species:S:1:pos:R:3 #=T CELL(abcABC):=T 1.889726e+02=T 90.00000=T Traj:=T positionsangstrom=T Step:=T 0=T Bead:=T pbc="F F F"
C      -46.76520000     -33.66310000     -73.52340000
C      -47.62380000     -32.85610000     -72.79330000
C      -48.31960000     -33.48050000     -71.74870000
C      -48.16260000     -34.84680000     -71.43010000
C      -47.30920000     -35.62930000     -72.19800000
C      -46.61500000     -35.01880000     -73.23380000
H      -46.24790000     -33.29820000     -74.37630000
H      -48.90720000     -32.90110000     -71.03540000
H      -47.04710000     -36.70210000     -71.96450000
H      -45.99880000     -35.59870000     -73.91440000
C      -48.74570000     -35.41620000     -70.23080000
H      -48.77040000     -36.52380000     -70.27700000
H      -49.75320000     -35.02370000     -70.06410000
C      -47.65750000     -31.31250000     -72.98000000
H      -47.89220000     -30.97610000     -74.04620000
H      -48.44820000     -30.89890000     -72.25360000
S      -47.83690000     -34.94960000     -68.69170000
S      -46.06490000     -30.52950000     -72.50950000
C      -46.12800000     -35.31490000     -69.08460000
H      -45.54290000     -35.74120000     -68.21560000
H      -45.97650000     -36.11840000     -69.85480000
C      -45.98040000     -30.70700000     -70.67990000
H      -46.50410000     -31.66070000     -70.46270000
H      -46.45750000     -29.90850000     -70.09650000
C      -44.57530000     -30.89070000     -70.10280000
H      -44.12850000     -29.88250000     -69.96760000
H      -44.75680000     -31.20240000     -69.09070000
C      -45.47260000     -34.07110000     -69.58470000
H      -45.18760000     -33.27420000     -68.77490000
H      -46.16570000     -33.50590000     -70.16590000
C      -44.23510000     -34.22280000     -70.38440000
C      -43.78140000     -35.45000000     -70.82130000
C      -43.46900000     -33.15840000     -70.92490000
H      -44.06880000     -36.45860000     -70.54090000
C      -42.36190000     -33.57390000     -71.70050000
C      -43.53300000     -31.74790000     -70.81270000
C      -42.56580000     -31.07010000     -71.49930000
S      -42.33280000     -35.31060000     -71.78210000
S      -41.49060000     -32.19060000     -72.29020000
H      -42.51290000     -29.98870000     -71.61960000
