40
Properties=species:S:1:pos:R:3 #=T CELL(abcABC):=T 1.889726e+02=T 90.00000=T Traj:=T positionsangstrom=T Step:=T 0=T Bead:=T pbc="F F F"
C      -46.68800000     -33.65260000     -73.39270000
C      -47.48840000     -32.82670000     -72.60270000
C      -48.18180000     -33.45380000     -71.59840000
C      -48.18880000     -34.87040000     -71.45670000
C      -47.51030000     -35.64630000     -72.37290000
C      -46.76520000     -35.04090000     -73.34850000
H      -45.94650000     -33.28850000     -74.13620000
H      -48.86980000     -32.89480000     -70.94420000
H      -47.57640000     -36.74870000     -72.38050000
H      -46.07210000     -35.59590000     -73.92630000
C      -48.92060000     -35.50560000     -70.31260000
H      -48.93380000     -36.62200000     -70.36820000
H      -49.97280000     -35.16230000     -70.24780000
C      -47.61470000     -31.31610000     -72.82590000
H      -47.91200000     -31.07700000     -73.85720000
H      -48.36210000     -30.88760000     -72.17550000
S      -48.15210000     -35.01490000     -68.67200000
S      -45.99180000     -30.39800000     -72.53190000
C      -46.34100000     -35.37120000     -69.19810000
H      -45.85930000     -35.81280000     -68.28590000
H      -46.25830000     -36.02970000     -70.07600000
C      -45.89810000     -30.62430000     -70.67070000
H      -46.53360000     -31.48830000     -70.46860000
H      -46.33760000     -29.73630000     -70.16560000
C      -44.47440000     -30.80200000     -70.17450000
H      -44.00850000     -29.77850000     -70.22500000
H      -44.50430000     -31.22390000     -69.11650000
C      -45.57580000     -34.06740000     -69.64830000
H      -45.45590000     -33.56880000     -68.72360000
H      -46.28950000     -33.49110000     -70.37970000
C      -44.23840000     -34.23220000     -70.41260000
C      -43.73620000     -35.44930000     -70.73950000
C      -43.44070000     -33.11500000     -70.89190000
H      -44.03350000     -36.40240000     -70.51280000
C      -42.31740000     -33.56210000     -71.59870000
C      -43.50680000     -31.65940000     -70.98220000
C      -42.39920000     -31.12630000     -71.60470000
S      -42.16150000     -35.27720000     -71.63060000
S      -41.40070000     -32.32370000     -72.36850000
H      -42.23410000     -30.07650000     -71.80220000
