40
Properties=species:S:1:pos:R:3 #=T CELL(abcABC):=T 1.889726e+02=T 90.00000=T Traj:=T positionsangstrom=T Step:=T 0=T Bead:=T pbc="F F F"
C      -45.62780000     -37.67510000     -71.17920000
C      -46.38030000     -36.79210000     -71.96900000
C      -47.18120000     -35.86480000     -71.28450000
C      -47.31920000     -35.89690000     -69.89910000
C      -46.60030000     -36.83870000     -69.12830000
C      -45.78800000     -37.75390000     -69.77750000
H      -44.84800000     -38.25040000     -71.64540000
H      -47.69920000     -35.06440000     -71.81670000
H      -46.89270000     -36.95720000     -68.07010000
H      -45.24500000     -38.61270000     -69.30090000
C      -48.18540000     -34.85900000     -69.20810000
H      -48.89290000     -35.38250000     -68.63100000
H      -48.61410000     -34.23230000     -69.97720000
C      -46.26600000     -36.85060000     -73.46120000
H      -45.38400000     -37.44580000     -73.52250000
H      -47.09490000     -37.45570000     -73.91100000
S      -47.22760000     -33.82020000     -67.96840000
S      -46.26350000     -35.19380000     -74.18420000
C      -46.67610000     -32.43340000     -69.02160000
H      -47.58290000     -31.95990000     -69.32540000
H      -46.29940000     -31.66970000     -68.32000000
C      -45.07780000     -34.24670000     -73.14930000
H      -43.97360000     -34.31850000     -73.31680000
H      -45.44460000     -34.28750000     -72.10540000
C      -45.48540000     -32.72860000     -73.56380000
H      -45.65530000     -32.68290000     -74.67630000
H      -46.49910000     -32.42450000     -73.13830000
C      -45.75460000     -32.79380000     -70.22520000
H      -46.36060000     -32.72280000     -71.12160000
H      -45.27600000     -33.83980000     -70.11470000
C      -44.65200000     -31.73470000     -70.46370000
C      -43.97420000     -31.00570000     -69.49180000
C      -44.15860000     -31.39590000     -71.78010000
H      -44.20850000     -31.25740000     -68.44060000
C      -43.10300000     -30.49580000     -71.71560000
C      -44.50380000     -31.67380000     -73.15030000
C      -43.82660000     -30.94750000     -74.07340000
S      -42.73020000     -29.93680000     -70.07790000
S      -42.67430000     -29.81710000     -73.30560000
H      -43.82380000     -31.22850000     -75.12720000
