40
Properties=species:S:1:pos:R:3 #=T CELL(abcABC):=T 1.889726e+02=T 90.00000=T Traj:=T positionsangstrom=T Step:=T 0=T Bead:=T pbc="F F F"
C      -45.31930000     -37.53020000     -71.01990000
C      -46.10670000     -36.61600000     -71.71810000
C      -46.99240000     -35.82680000     -70.94710000
C      -47.03600000     -35.96440000     -69.50900000
C      -46.19310000     -36.92050000     -68.85110000
C      -45.30310000     -37.69220000     -69.61980000
H      -44.61260000     -38.13560000     -71.54390000
H      -47.53860000     -35.01410000     -71.48230000
H      -46.50720000     -37.05240000     -67.74920000
H      -44.54780000     -38.30870000     -69.20370000
C      -48.03990000     -35.03520000     -68.70930000
H      -48.47260000     -35.63040000     -67.94160000
H      -48.78670000     -34.53610000     -69.43830000
C      -46.21320000     -36.76610000     -73.18710000
H      -45.25390000     -37.09180000     -73.62060000
H      -47.01780000     -37.48260000     -73.39350000
S      -47.07950000     -33.65320000     -67.86710000
S      -46.69380000     -35.25290000     -74.19910000
C      -46.73840000     -32.54220000     -69.28100000
H      -47.71060000     -32.29030000     -69.77860000
H      -46.41140000     -31.51800000     -68.86310000
C      -45.31870000     -34.02000000     -74.03640000
H      -44.98550000     -33.92260000     -75.08110000
H      -44.61440000     -34.47960000     -73.35270000
C      -45.76310000     -32.62190000     -73.65160000
H      -46.34820000     -32.17510000     -74.52850000
H      -46.48680000     -32.57910000     -72.81930000
C      -45.60810000     -32.97320000     -70.21900000
H      -46.03570000     -33.34650000     -71.14880000
H      -45.09040000     -33.68060000     -69.70340000
C      -44.56230000     -31.88320000     -70.55590000
C      -43.91800000     -31.15020000     -69.59910000
C      -44.31100000     -31.41610000     -71.86930000
H      -43.85660000     -31.40750000     -68.53650000
C      -43.36230000     -30.37780000     -71.83310000
C      -44.63650000     -31.69560000     -73.27370000
C      -43.92690000     -31.00340000     -74.18510000
S      -42.86200000     -29.97160000     -70.23410000
S      -42.76730000     -29.86700000     -73.38810000
H      -43.82220000     -31.30350000     -75.20640000
