40
Properties=species:S:1:pos:R:3 #=T CELL(abcABC):=T 1.889726e+02=T 90.00000=T Traj:=T positionsangstrom=T Step:=T 0=T Bead:=T pbc="F F F"
C      -46.45410000     -33.40370000     -73.65760000
C      -47.21080000     -32.37970000     -72.92470000
C      -48.11750000     -32.83540000     -71.93640000
C      -48.21320000     -34.20150000     -71.70650000
C      -47.62000000     -35.17390000     -72.49170000
C      -46.65150000     -34.74370000     -73.45070000
H      -45.65240000     -32.96880000     -74.20650000
H      -48.71030000     -32.11570000     -71.33460000
H      -47.66200000     -36.27180000     -72.29810000
H      -46.05340000     -35.43790000     -74.04620000
C      -49.10020000     -34.62980000     -70.51810000
H      -49.44060000     -35.66820000     -70.58330000
H      -50.12230000     -34.06420000     -70.53230000
C      -47.10980000     -30.92650000     -73.30580000
H      -46.65690000     -30.84490000     -74.35180000
H      -48.12700000     -30.47600000     -73.26980000
S      -48.24570000     -34.30830000     -68.88890000
S      -45.99870000     -30.01800000     -72.10360000
C      -46.57880000     -35.11820000     -69.15630000
H      -46.46320000     -36.02180000     -68.53470000
H      -46.69140000     -35.48210000     -70.19310000
C      -45.51230000     -31.28890000     -70.73560000
H      -45.63900000     -32.29880000     -71.19630000
H      -46.39250000     -31.19810000     -70.11500000
C      -44.16370000     -31.11250000     -70.12040000
H      -43.88310000     -30.03770000     -70.16610000
H      -44.21710000     -31.27270000     -69.05610000
C      -45.37220000     -34.07830000     -69.05590000
H      -45.14010000     -33.86680000     -68.01520000
H      -45.80200000     -33.05990000     -69.33290000
C      -44.21210000     -34.44610000     -69.92410000
C      -43.95810000     -35.73650000     -70.36120000
C      -43.28460000     -33.50520000     -70.63570000
H      -44.56840000     -36.57140000     -70.02110000
C      -42.50880000     -34.21320000     -71.52040000
C      -43.17000000     -32.08310000     -70.76520000
C      -42.31620000     -31.76790000     -71.80530000
S      -42.65480000     -35.93450000     -71.54590000
S      -41.51290000     -33.05240000     -72.52400000
H      -42.11610000     -30.77710000     -72.15180000
