40
Properties=species:S:1:pos:R:3 #=T CELL(abcABC):=T 1.889726e+02=T 90.00000=T Traj:=T positionsangstrom=T Step:=T 0=T Bead:=T pbc="F F F"
C      -44.79360000     -37.11660000     -71.18050000
C      -46.00920000     -36.67620000     -71.75330000
C      -46.94280000     -36.01280000     -70.91970000
C      -46.67480000     -35.78540000     -69.56720000
C      -45.53000000     -36.35830000     -69.01180000
C      -44.60190000     -37.05150000     -69.79970000
H      -43.98560000     -37.63390000     -71.74410000
H      -47.81970000     -35.58680000     -71.41430000
H      -45.30720000     -36.12710000     -67.99240000
H      -43.67620000     -37.43160000     -69.32230000
C      -47.65330000     -34.93590000     -68.76290000
H      -48.07270000     -35.47380000     -67.90790000
H      -48.67580000     -34.70790000     -69.35530000
C      -46.24830000     -36.86730000     -73.21410000
H      -45.34380000     -37.19050000     -73.77360000
H      -46.95440000     -37.60210000     -73.35200000
S      -47.12480000     -33.43550000     -67.90470000
S      -46.98100000     -35.41590000     -74.12610000
C      -46.33000000     -32.46410000     -69.24380000
H      -46.98300000     -32.49600000     -70.13710000
H      -46.28110000     -31.44670000     -68.87820000
C      -45.71260000     -34.06620000     -73.82580000
H      -45.66200000     -33.73620000     -74.81760000
H      -44.84910000     -34.62830000     -73.45980000
C      -46.26380000     -33.01730000     -72.86830000
H      -47.12200000     -32.58960000     -73.33590000
H      -46.47400000     -33.46650000     -71.90480000
C      -44.93390000     -33.10680000     -69.54940000
H      -44.93480000     -34.09550000     -70.22620000
H      -44.32640000     -33.20440000     -68.62820000
C      -44.14700000     -32.00560000     -70.34400000
C      -43.21940000     -31.22020000     -69.69720000
C      -44.38600000     -31.53380000     -71.70790000
H      -42.86010000     -31.31830000     -68.63060000
C      -43.51600000     -30.47740000     -72.03090000
C      -45.27870000     -31.91170000     -72.79400000
C      -45.06750000     -31.13490000     -73.93300000
S      -42.47460000     -29.97990000     -70.73650000
S      -43.68420000     -30.02450000     -73.73450000
H      -45.65860000     -31.17560000     -74.82510000
