40
Properties=species:S:1:pos:R:3 #=T CELL(abcABC):=T 1.889726e+02=T 90.00000=T Traj:=T positionsangstrom=T Step:=T 0=T Bead:=T pbc="F F F"
C      -44.44330000     -37.24960000     -70.89420000
C      -45.62790000     -36.69700000     -71.50160000
C      -46.51590000     -35.97510000     -70.72840000
C      -46.40750000     -35.95190000     -69.33580000
C      -45.28070000     -36.54540000     -68.74770000
C      -44.33000000     -37.22930000     -69.50500000
H      -43.72430000     -37.82920000     -71.44850000
H      -47.33720000     -35.43740000     -71.15960000
H      -45.21390000     -36.47120000     -67.65690000
H      -43.63700000     -37.79410000     -68.90640000
C      -47.39430000     -35.06130000     -68.59760000
H      -47.93100000     -35.49670000     -67.78260000
H      -48.07330000     -34.71650000     -69.33680000
C      -45.84770000     -36.82260000     -72.99010000
H      -44.98830000     -36.51740000     -73.42000000
H      -45.90980000     -37.87220000     -73.28350000
S      -46.77980000     -33.52260000     -67.75550000
S      -47.22210000     -35.80630000     -73.77250000
C      -46.10720000     -32.32750000     -69.05920000
H      -46.87230000     -32.05100000     -69.81190000
H      -45.86420000     -31.45800000     -68.43280000
C      -46.33450000     -34.19520000     -74.08740000
H      -47.03820000     -33.53570000     -74.62190000
H      -45.42070000     -34.21510000     -74.76370000
C      -45.92840000     -33.45080000     -72.74020000
H      -46.84270000     -33.31620000     -72.18600000
H      -45.30110000     -34.11260000     -72.11480000
C      -44.76280000     -32.85390000     -69.71350000
H      -44.97690000     -33.79280000     -70.30070000
H      -44.16570000     -33.13750000     -68.87060000
C      -44.16910000     -31.71390000     -70.57840000
C      -43.25390000     -30.85080000     -70.05930000
C      -44.46420000     -31.45180000     -71.95430000
H      -42.86380000     -30.78290000     -69.05320000
C      -43.93720000     -30.24640000     -72.30610000
C      -45.27140000     -32.10150000     -72.97850000
C      -45.25250000     -31.33940000     -74.12300000
S      -42.84230000     -29.55600000     -71.15420000
S      -44.26220000     -29.84000000     -73.98090000
H      -45.64380000     -31.71150000     -75.03550000
