40
Properties=species:S:1:pos:R:3 #=T CELL(abcABC):=T 1.889726e+02=T 90.00000=T Traj:=T positionsangstrom=T Step:=T 0=T Bead:=T pbc="F F F"
C      -44.65130000     -37.32690000     -71.35920000
C      -45.99090000     -37.02670000     -71.51010000
C      -46.62090000     -36.43780000     -70.42510000
C      -46.05900000     -36.15450000     -69.19460000
C      -44.66090000     -36.45280000     -69.04540000
C      -44.03810000     -37.08360000     -70.13680000
H      -44.24180000     -37.79940000     -72.28410000
H      -47.65260000     -36.17580000     -70.59990000
H      -44.09330000     -36.33710000     -68.13360000
H      -42.99060000     -37.26190000     -70.00470000
C      -46.71780000     -35.31650000     -68.17080000
H      -46.89010000     -35.87980000     -67.23690000
H      -47.67210000     -35.04940000     -68.51510000
C      -46.57020000     -37.17350000     -72.86670000
H      -45.87030000     -37.47470000     -73.68180000
H      -47.40760000     -37.90670000     -72.95610000
S      -45.72800000     -33.90390000     -67.51390000
S      -47.45170000     -35.61710000     -73.48140000
C      -45.66790000     -32.61090000     -68.86090000
H      -46.48020000     -32.69820000     -69.64630000
H      -45.88480000     -31.59450000     -68.52150000
C      -46.08290000     -34.45490000     -73.75260000
H      -46.47990000     -33.78490000     -74.54320000
H      -45.17640000     -34.92830000     -74.28310000
C      -45.73680000     -33.56080000     -72.59950000
H      -46.61890000     -33.34730000     -72.00070000
H      -45.01210000     -34.09530000     -71.98320000
C      -44.32790000     -32.49830000     -69.54990000
H      -44.10710000     -33.38620000     -70.19840000
H      -43.58230000     -32.34640000     -68.77910000
C      -44.28040000     -31.31590000     -70.50230000
C      -43.75390000     -30.13630000     -70.10480000
C      -44.53150000     -31.33820000     -72.00890000
H      -43.39790000     -30.04230000     -69.16450000
C      -44.14440000     -30.12310000     -72.59070000
C      -45.21600000     -32.21340000     -72.98500000
C      -45.41350000     -31.57320000     -74.17930000
S      -43.57200000     -28.93070000     -71.45630000
S      -44.74910000     -29.94100000     -74.25270000
H      -45.99310000     -31.96810000     -75.02870000
