40
Properties=species:S:1:pos:R:3 #=T CELL(abcABC):=T 1.889726e+02=T 90.00000=T Traj:=T positionsangstrom=T Step:=T 0=T Bead:=T pbc="F F F"
C      -43.32200000     -30.14470000     -71.15050000
C      -44.05580000     -31.23270000     -71.78260000
C      -43.88570000     -32.54500000     -71.41670000
C      -43.14590000     -32.79940000     -70.22080000
C      -42.37450000     -31.75200000     -69.54880000
C      -42.56740000     -30.40180000     -69.96990000
H      -43.29110000     -29.09250000     -71.56380000
H      -44.36750000     -33.41460000     -71.86080000
H      -41.76380000     -31.97820000     -68.76650000
H      -41.98040000     -29.53250000     -69.53460000
C      -43.10470000     -34.15590000     -69.62910000
H      -42.08350000     -34.43300000     -69.30640000
H      -43.36300000     -35.02790000     -70.24120000
C      -44.96970000     -30.81040000     -72.85560000
H      -44.44510000     -30.02990000     -73.44800000
H      -45.33280000     -31.64920000     -73.60060000
S      -44.11170000     -34.11150000     -68.04620000
S      -46.60520000     -30.06470000     -72.35390000
C      -45.83320000     -33.65350000     -68.68110000
H      -46.43870000     -33.14260000     -67.95670000
H      -45.64410000     -32.85430000     -69.41240000
C      -47.24250000     -31.21330000     -71.07900000
H      -47.99960000     -30.73610000     -70.47440000
H      -46.37170000     -31.47450000     -70.43170000
C      -47.94670000     -32.59260000     -71.64170000
H      -48.52900000     -32.97180000     -70.80220000
H      -48.76040000     -32.19820000     -72.24830000
C      -46.58630000     -34.85340000     -69.19260000
H      -47.66830000     -34.57950000     -69.21670000
H      -46.51690000     -35.69970000     -68.53770000
C      -46.21300000     -35.34700000     -70.51890000
C      -45.73190000     -36.60200000     -70.64570000
C      -46.36320000     -34.71020000     -71.82910000
H      -45.52610000     -37.30830000     -69.84310000
C      -45.77160000     -35.48050000     -72.85190000
C      -47.07570000     -33.58110000     -72.40810000
C      -47.01950000     -33.45500000     -73.78180000
S      -45.18110000     -36.96740000     -72.29170000
S      -46.13640000     -34.83920000     -74.43780000
H      -47.45350000     -32.61700000     -74.39640000
