40
Properties=species:S:1:pos:R:3 #=T CELL(abcABC):=T 1.889726e+02=T 90.00000=T Traj:=T positionsangstrom=T Step:=T 0=T Bead:=T pbc="F F F"
C      -44.54540000     -36.99600000     -71.98120000
C      -45.84840000     -36.73620000     -71.56630000
C      -46.14870000     -36.18250000     -70.34870000
C      -45.10440000     -35.83120000     -69.37110000
C      -43.75590000     -36.08650000     -69.85340000
C      -43.51990000     -36.70860000     -71.08850000
H      -44.50930000     -37.31610000     -72.99850000
H      -47.16730000     -35.77600000     -70.09610000
H      -42.85800000     -35.76160000     -69.27190000
H      -42.55000000     -36.79380000     -71.48140000
C      -45.44880000     -35.39900000     -67.91760000
H      -45.20680000     -36.27130000     -67.24540000
H      -46.51870000     -35.24070000     -67.79330000
C      -46.99570000     -36.94170000     -72.51100000
H      -46.62520000     -37.25910000     -73.45840000
H      -47.66670000     -37.66210000     -71.98250000
S      -44.43150000     -33.98990000     -67.21780000
S      -48.17260000     -35.55970000     -72.78390000
C      -44.55720000     -32.50610000     -68.37100000
H      -45.31840000     -31.92740000     -67.87200000
H      -43.66940000     -31.99810000     -68.27920000
C      -47.12750000     -34.30100000     -73.70810000
H      -47.82020000     -33.57570000     -73.96480000
H      -46.76220000     -34.78190000     -74.63490000
C      -45.93520000     -33.80220000     -72.90320000
H      -45.92600000     -34.11190000     -71.87610000
H      -45.09410000     -34.37570000     -73.33770000
C      -44.90870000     -32.84160000     -69.84560000
H      -45.98470000     -33.10050000     -69.94890000
H      -44.24240000     -33.65850000     -70.16270000
C      -44.65330000     -31.56870000     -70.68740000
C      -44.00600000     -30.44110000     -70.22180000
C      -45.03320000     -31.42200000     -72.04390000
H      -43.77760000     -30.24020000     -69.17960000
C      -44.74620000     -30.17060000     -72.58260000
C      -45.67680000     -32.31030000     -73.06840000
C      -45.78560000     -31.71000000     -74.29460000
S      -44.05440000     -29.12220000     -71.41990000
S      -45.14580000     -30.04140000     -74.29850000
H      -46.15230000     -32.05790000     -75.23890000
