40
Properties=species:S:1:pos:R:3 #=T CELL(abcABC):=T 1.889726e+02=T 90.00000=T Traj:=T positionsangstrom=T Step:=T 0=T Bead:=T pbc="F F F"
C      -44.48970000     -37.02390000     -72.12900000
C      -45.78480000     -36.77020000     -71.63830000
C      -46.03640000     -36.19040000     -70.38490000
C      -45.02960000     -35.91840000     -69.44730000
C      -43.70800000     -36.19960000     -69.94990000
C      -43.47080000     -36.74690000     -71.22960000
H      -44.29570000     -37.56470000     -73.12600000
H      -47.13010000     -36.08930000     -70.16880000
H      -42.93020000     -36.04900000     -69.22240000
H      -42.40490000     -36.78760000     -71.43450000
C      -45.44500000     -35.34270000     -68.10280000
H      -45.65910000     -36.03790000     -67.30990000
H      -46.39680000     -34.80490000     -68.31110000
C      -46.95470000     -37.05900000     -72.52240000
H      -46.55220000     -37.31000000     -73.58560000
H      -47.48060000     -37.92750000     -72.19820000
S      -44.27270000     -34.12550000     -67.41260000
S      -48.17020000     -35.63830000     -72.59830000
C      -44.34950000     -32.52260000     -68.32970000
H      -45.04240000     -31.78750000     -67.73820000
H      -43.31260000     -32.07550000     -68.31040000
C      -47.35300000     -34.24280000     -73.43930000
H      -48.20120000     -33.50850000     -73.59670000
H      -46.92610000     -34.42970000     -74.44310000
C      -46.25510000     -33.63130000     -72.51360000
H      -46.77030000     -33.46230000     -71.55900000
H      -45.47880000     -34.33330000     -72.34540000
C      -44.79520000     -32.70280000     -69.75140000
H      -45.79320000     -33.10100000     -69.80130000
H      -44.17060000     -33.45200000     -70.26370000
C      -44.69070000     -31.43390000     -70.61950000
C      -44.20250000     -30.18700000     -70.22550000
C      -45.09400000     -31.36580000     -71.98570000
H      -43.85050000     -29.93730000     -69.18320000
C      -44.84980000     -30.13610000     -72.59540000
C      -45.64250000     -32.29220000     -72.96270000
C      -45.69360000     -31.81030000     -74.23330000
S      -44.02610000     -29.02600000     -71.52770000
S      -45.29580000     -30.09370000     -74.33280000
H      -46.14000000     -32.35480000     -75.04020000
