40
Properties=species:S:1:pos:R:3 #=T CELL(abcABC):=T 1.889726e+02=T 90.00000=T Traj:=T positionsangstrom=T Step:=T 0=T Bead:=T pbc="F F F"
C      -44.68840000     -37.31580000     -72.21010000
C      -45.85930000     -36.83530000     -71.64150000
C      -45.73970000     -36.11300000     -70.42690000
C      -44.49420000     -35.97130000     -69.81780000
C      -43.33380000     -36.50760000     -70.42790000
C      -43.41570000     -37.10370000     -71.69040000
H      -44.75190000     -37.82640000     -73.16460000
H      -46.64400000     -35.70450000     -69.84950000
H      -42.36380000     -36.40650000     -69.98900000
H      -42.49630000     -37.46810000     -72.14550000
C      -44.43180000     -35.35940000     -68.42150000
H      -44.24880000     -36.23880000     -67.77050000
H      -45.41580000     -34.91930000     -68.04850000
C      -47.15030000     -37.18140000     -72.39410000
H      -46.94150000     -37.35220000     -73.46410000
H      -47.66910000     -38.02050000     -71.99080000
S      -43.05250000     -34.19650000     -68.15780000
S      -48.36170000     -35.77220000     -72.25280000
C      -43.67820000     -32.46350000     -68.64850000
H      -43.70910000     -31.84750000     -67.72680000
H      -42.84370000     -32.06780000     -69.20100000
C      -47.54710000     -34.36490000     -73.10470000
H      -48.38450000     -33.87870000     -73.58110000
H      -46.89810000     -34.66550000     -73.89100000
C      -46.76890000     -33.48870000     -72.14990000
H      -47.38240000     -33.37110000     -71.22800000
H      -45.83520000     -34.01760000     -71.81550000
C      -44.93310000     -32.44980000     -69.44140000
H      -45.80510000     -32.25840000     -68.73200000
H      -45.20480000     -33.36040000     -69.92570000
C      -44.92780000     -31.28860000     -70.46190000
C      -44.27520000     -30.10640000     -70.13660000
C      -45.38740000     -31.29710000     -71.85150000
H      -43.80450000     -30.01390000     -69.20880000
C      -45.13340000     -30.09930000     -72.49750000
C      -46.33180000     -32.12990000     -72.65950000
C      -46.54700000     -31.54350000     -73.87820000
S      -44.27450000     -28.99240000     -71.48430000
S      -45.80680000     -29.90000000     -74.08950000
H      -47.18850000     -31.79480000     -74.69350000
