40
Properties=species:S:1:pos:R:3 #=T CELL(abcABC):=T 1.889726e+02=T 90.00000=T Traj:=T positionsangstrom=T Step:=T 0=T Bead:=T pbc="F F F"
C      -44.63980000     -37.25650000     -72.32580000
C      -45.82350000     -37.01300000     -71.69140000
C      -45.71770000     -36.40150000     -70.38800000
C      -44.51610000     -36.14050000     -69.80010000
C      -43.31490000     -36.45970000     -70.46790000
C      -43.42340000     -37.02980000     -71.73300000
H      -44.67550000     -37.57050000     -73.35200000
H      -46.66680000     -36.23250000     -69.89930000
H      -42.39410000     -36.18050000     -69.95090000
H      -42.47130000     -37.36510000     -72.19380000
C      -44.38100000     -35.36910000     -68.56420000
H      -44.09030000     -35.97530000     -67.73750000
H      -45.27750000     -34.83360000     -68.27980000
C      -47.21490000     -37.22300000     -72.27990000
H      -47.09860000     -37.63460000     -73.26140000
H      -47.75200000     -38.01650000     -71.61100000
S      -42.88760000     -34.19210000     -68.47830000
S      -48.41220000     -35.76250000     -72.13230000
C      -43.63430000     -32.43910000     -68.59800000
H      -43.82030000     -32.10690000     -67.59560000
H      -42.78100000     -31.84050000     -69.02880000
C      -47.57010000     -34.28180000     -72.95270000
H      -48.49840000     -33.65100000     -73.19290000
H      -47.02530000     -34.58300000     -73.83010000
C      -46.73370000     -33.51150000     -71.96880000
H      -47.28570000     -33.38150000     -71.03430000
H      -45.91670000     -34.13680000     -71.66100000
C      -44.71640000     -32.40830000     -69.61240000
H      -45.66370000     -32.60470000     -69.13560000
H      -44.53200000     -33.32550000     -70.22920000
C      -44.80590000     -31.16890000     -70.47440000
C      -44.16070000     -29.95830000     -70.23070000
C      -45.47030000     -31.17840000     -71.72210000
H      -43.49240000     -29.81090000     -69.40350000
C      -45.33440000     -30.01110000     -72.40860000
C      -46.22990000     -32.18000000     -72.47880000
C      -46.49120000     -31.70970000     -73.71550000
S      -44.37470000     -28.86550000     -71.53560000
S      -46.02820000     -29.99330000     -74.02380000
H      -47.09690000     -32.04080000     -74.45960000
