40
Properties=species:S:1:pos:R:3 #=T CELL(abcABC):=T 1.889726e+02=T 90.00000=T Traj:=T positionsangstrom=T Step:=T 0=T Bead:=T pbc="F F F"
C      -44.75490000     -37.30710000     -72.33930000
C      -45.89260000     -36.90900000     -71.60840000
C      -45.67570000     -36.36620000     -70.38610000
C      -44.30780000     -36.06500000     -69.93920000
C      -43.24610000     -36.43290000     -70.74500000
C      -43.44290000     -37.10780000     -71.97770000
H      -44.97990000     -37.93880000     -73.20080000
H      -46.46080000     -36.07940000     -69.75590000
H      -42.23760000     -36.23470000     -70.31270000
H      -42.64720000     -37.35150000     -72.69820000
C      -44.09980000     -35.47760000     -68.59530000
H      -43.84650000     -36.22260000     -67.80120000
H      -45.05780000     -35.07310000     -68.30180000
C      -47.27180000     -37.16450000     -72.19220000
H      -47.23570000     -37.38140000     -73.25530000
H      -47.72600000     -38.06970000     -71.79540000
S      -42.68300000     -34.14730000     -68.51980000
S      -48.44580000     -35.76540000     -71.91110000
C      -43.64110000     -32.58230000     -68.56660000
H      -44.28080000     -32.63580000     -67.72350000
H      -42.92450000     -31.73430000     -68.49080000
C      -47.55110000     -34.37080000     -72.78300000
H      -48.34580000     -33.73020000     -73.20750000
H      -47.03520000     -34.78990000     -73.64670000
C      -46.60060000     -33.57660000     -71.94670000
H      -46.96720000     -33.57550000     -70.86450000
H      -45.65130000     -34.11650000     -71.95200000
C      -44.61630000     -32.42910000     -69.72570000
H      -45.60000000     -32.69260000     -69.32430000
H      -44.49710000     -33.23900000     -70.50190000
C      -44.69110000     -31.13420000     -70.51670000
C      -44.13300000     -29.92570000     -70.27670000
C      -45.49560000     -31.12520000     -71.73300000
H      -43.49860000     -29.64230000     -69.42540000
C      -45.39570000     -29.91720000     -72.43430000
C      -46.25130000     -32.19700000     -72.42540000
C      -46.76670000     -31.69580000     -73.54460000
S      -44.51260000     -28.76410000     -71.56360000
S      -46.19850000     -30.07360000     -74.03300000
H      -47.28460000     -32.25760000     -74.27390000
