40
Properties=species:S:1:pos:R:3 #=T CELL(abcABC):=T 1.889726e+02=T 90.00000=T Traj:=T positionsangstrom=T Step:=T 0=T Bead:=T pbc="F F F"
C      -44.78440000     -37.26070000     -72.39960000
C      -45.78280000     -36.77200000     -71.59600000
C      -45.46950000     -36.17880000     -70.40540000
C      -44.12220000     -36.01620000     -70.01300000
C      -43.11440000     -36.42720000     -70.93020000
C      -43.40680000     -37.07960000     -72.09600000
H      -44.99870000     -37.76450000     -73.34470000
H      -46.29630000     -35.81550000     -69.78750000
H      -42.12070000     -36.32090000     -70.52970000
H      -42.70540000     -37.37630000     -72.82030000
C      -43.83860000     -35.46270000     -68.63520000
H      -43.50000000     -36.29340000     -67.94600000
H      -44.78090000     -35.16600000     -68.29670000
C      -47.22000000     -37.21700000     -71.93240000
H      -47.21930000     -37.49490000     -73.03360000
H      -47.64010000     -37.97620000     -71.28830000
S      -42.67770000     -34.12730000     -68.43220000
S      -48.37240000     -35.78780000     -71.74830000
C      -43.46210000     -32.48340000     -68.72840000
H      -43.78850000     -31.97520000     -67.77290000
H      -42.69210000     -31.84550000     -69.06640000
C      -47.67290000     -34.36660000     -72.73400000
H      -48.52290000     -33.78490000     -72.85700000
H      -47.38970000     -34.69030000     -73.76840000
C      -46.56200000     -33.61970000     -72.09490000
H      -46.80840000     -33.43750000     -71.10280000
H      -45.62980000     -34.16210000     -72.17220000
C      -44.53040000     -32.57790000     -69.79180000
H      -45.47800000     -32.89280000     -69.37630000
H      -44.25970000     -33.32870000     -70.44840000
C      -44.72060000     -31.30430000     -70.62360000
C      -44.23680000     -30.04780000     -70.25520000
C      -45.54960000     -31.28440000     -71.80440000
H      -43.45190000     -29.67020000     -69.54030000
C      -45.55670000     -29.98220000     -72.40240000
C      -46.23720000     -32.21940000     -72.65220000
C      -46.82860000     -31.65010000     -73.72140000
S      -44.61000000     -28.89020000     -71.52730000
S      -46.50370000     -29.90100000     -73.88210000
H      -47.48930000     -32.19690000     -74.43020000
