40
Properties=species:S:1:pos:R:3 #=T CELL(abcABC):=T 1.889726e+02=T 90.00000=T Traj:=T positionsangstrom=T Step:=T 0=T Bead:=T pbc="F F F"
C      -44.70250000     -37.04540000     -72.50030000
C      -45.72860000     -36.84450000     -71.58420000
C      -45.37200000     -36.36720000     -70.34640000
C      -44.10240000     -36.11040000     -69.91710000
C      -43.06480000     -36.29130000     -70.86090000
C      -43.39680000     -36.76930000     -72.14520000
H      -44.89330000     -37.38410000     -73.53630000
H      -46.18810000     -36.20960000     -69.65250000
H      -42.05540000     -35.94760000     -70.68080000
H      -42.60220000     -36.98320000     -72.86640000
C      -43.82600000     -35.49760000     -68.56870000
H      -43.40810000     -36.23990000     -67.91490000
H      -44.70660000     -35.09940000     -68.01340000
C      -47.18640000     -37.02030000     -71.97210000
H      -47.17460000     -37.33690000     -73.02310000
H      -47.49660000     -37.93740000     -71.42380000
S      -42.49130000     -34.11330000     -68.33610000
S      -48.39230000     -35.69680000     -71.56060000
C      -43.16610000     -32.57990000     -69.07380000
H      -43.26980000     -31.97110000     -68.17710000
H      -42.34390000     -32.10320000     -69.63090000
C      -47.88180000     -34.38510000     -72.80240000
H      -48.67960000     -33.60110000     -72.76800000
H      -47.90830000     -34.89080000     -73.85570000
C      -46.49210000     -33.71750000     -72.41630000
H      -46.26070000     -33.91190000     -71.38210000
H      -45.73740000     -34.35170000     -72.94700000
C      -44.46980000     -32.65070000     -69.91680000
H      -45.35270000     -32.87130000     -69.20720000
H      -44.30540000     -33.52680000     -70.56070000
C      -44.73850000     -31.39860000     -70.68310000
C      -44.23150000     -30.15580000     -70.32220000
C      -45.55850000     -31.38010000     -71.89940000
H      -43.48080000     -29.86620000     -69.57030000
C      -45.62130000     -30.05760000     -72.41860000
C      -46.39700000     -32.24250000     -72.64950000
C      -47.10990000     -31.61820000     -73.64990000
S      -44.68680000     -28.91160000     -71.44090000
S      -46.64920000     -29.90890000     -73.84660000
H      -47.71910000     -32.19700000     -74.42750000
