40
Properties=species:S:1:pos:R:3 #=T CELL(abcABC):=T 1.889726e+02=T 90.00000=T Traj:=T positionsangstrom=T Step:=T 0=T Bead:=T pbc="F F F"
C      -44.60930000     -36.77560000     -72.52500000
C      -45.68870000     -36.65220000     -71.60760000
C      -45.39990000     -36.25860000     -70.28420000
C      -44.13560000     -35.89740000     -69.81900000
C      -43.18650000     -35.92340000     -70.81610000
C      -43.33500000     -36.37210000     -72.15230000
H      -44.82390000     -37.12090000     -73.56830000
H      -46.20020000     -36.27300000     -69.53000000
H      -42.12800000     -35.65920000     -70.54160000
H      -42.42710000     -36.30240000     -72.78880000
C      -43.80150000     -35.50000000     -68.38010000
H      -43.56520000     -36.46530000     -67.93570000
H      -44.70880000     -35.13030000     -67.80460000
C      -47.07420000     -37.02330000     -71.97070000
H      -47.31250000     -37.24650000     -72.96850000
H      -47.32410000     -37.86510000     -71.29370000
S      -42.37000000     -34.33670000     -68.40810000
S      -48.38170000     -35.72210000     -71.48820000
C      -42.97580000     -32.75610000     -69.37840000
H      -43.25880000     -32.04610000     -68.62120000
H      -42.14050000     -32.35860000     -70.02550000
C      -48.03650000     -34.29470000     -72.55310000
H      -48.76680000     -33.56710000     -72.16580000
H      -48.23060000     -34.51470000     -73.52780000
C      -46.48310000     -33.80200000     -72.47410000
H      -46.12070000     -34.10490000     -71.43090000
H      -45.82060000     -34.30880000     -73.15520000
C      -44.16720000     -32.89790000     -70.34170000
H      -45.02800000     -33.36580000     -69.97580000
H      -43.89630000     -33.50150000     -71.26160000
C      -44.62370000     -31.51640000     -70.80140000
C      -44.15900000     -30.29670000     -70.38800000
C      -45.60550000     -31.36100000     -71.92630000
H      -43.50510000     -30.10650000     -69.58730000
C      -45.81240000     -30.06710000     -72.35400000
C      -46.36070000     -32.28350000     -72.73160000
C      -46.98330000     -31.62940000     -73.79680000
S      -44.86820000     -28.97280000     -71.29890000
S      -46.85140000     -29.91850000     -73.73900000
H      -47.57300000     -32.15390000     -74.57510000
