40
Properties=species:S:1:pos:R:3 #=T CELL(abcABC):=T 1.889726e+02=T 90.00000=T Traj:=T positionsangstrom=T Step:=T 0=T Bead:=T pbc="F F F"
C      -44.34910000     -37.23590000     -72.56860000
C      -45.44170000     -36.95120000     -71.71460000
C      -45.19940000     -36.31870000     -70.48790000
C      -43.97630000     -36.04110000     -70.07710000
C      -42.91090000     -36.32560000     -70.95340000
C      -43.07810000     -36.88390000     -72.17710000
H      -44.59850000     -37.74940000     -73.49190000
H      -46.03110000     -36.15610000     -69.77740000
H      -41.92870000     -36.02890000     -70.57680000
H      -42.18330000     -37.13270000     -72.74570000
C      -43.76740000     -35.42570000     -68.71280000
H      -43.37960000     -36.05990000     -67.92540000
H      -44.75780000     -35.04990000     -68.32320000
C      -46.85130000     -37.28270000     -72.11090000
H      -46.89190000     -37.43870000     -73.17000000
H      -47.19060000     -38.22800000     -71.65150000
S      -42.69820000     -33.85120000     -68.80600000
S      -48.10000000     -36.10910000     -71.55920000
C      -43.66080000     -32.64070000     -69.73420000
H      -44.74140000     -32.87960000     -69.59020000
H      -43.37910000     -31.74500000     -69.19580000
C      -47.83280000     -34.45480000     -72.17510000
H      -48.73240000     -33.88930000     -71.79730000
H      -47.66120000     -34.57170000     -73.27910000
C      -46.63590000     -33.71030000     -71.66040000
H      -46.30630000     -34.04770000     -70.64670000
H      -45.79140000     -34.02260000     -72.32910000
C      -43.39290000     -32.62510000     -71.29230000
H      -43.59850000     -33.62110000     -71.72830000
H      -42.25700000     -32.60720000     -71.55780000
C      -44.11760000     -31.39550000     -71.91700000
C      -43.54150000     -30.17110000     -72.25550000
C      -45.52730000     -31.28510000     -71.82960000
H      -42.50720000     -29.89760000     -72.32430000
C      -46.00030000     -29.92480000     -71.96380000
C      -46.63490000     -32.17430000     -71.65810000
C      -47.87650000     -31.49420000     -71.72240000
S      -44.69940000     -28.81380000     -72.42810000
S      -47.65300000     -29.76020000     -71.84820000
H      -48.85760000     -31.88570000     -71.48890000
