40
Properties=species:S:1:pos:R:3 #=T CELL(abcABC):=T 1.889726e+02=T 90.00000=T Traj:=T positionsangstrom=T Step:=T 0=T Bead:=T pbc="F F F"
C      -46.42060000     -37.40930000     -69.73820000
C      -46.85430000     -36.62420000     -70.86740000
C      -45.92420000     -36.45810000     -71.89380000
C      -44.57630000     -36.92820000     -71.78110000
C      -44.16070000     -37.68210000     -70.69990000
C      -45.09600000     -37.86840000     -69.60560000
H      -47.11400000     -37.66430000     -68.93150000
H      -46.10180000     -35.77900000     -72.71810000
H      -43.16520000     -38.07600000     -70.48700000
H      -44.69350000     -38.37070000     -68.81140000
C      -43.60400000     -36.69600000     -72.89360000
H      -44.16190000     -36.40630000     -73.71930000
H      -43.03630000     -37.65230000     -73.05380000
C      -48.13440000     -35.93230000     -70.97790000
H      -48.49090000     -36.04840000     -72.03510000
H      -48.87860000     -36.53440000     -70.41360000
S      -42.38020000     -35.39230000     -72.43110000
S      -48.37220000     -34.06390000     -70.65620000
C      -43.43490000     -33.84870000     -72.35240000
H      -43.53400000     -33.42220000     -73.42120000
H      -44.41240000     -34.13140000     -71.84950000
C      -47.13130000     -33.63310000     -69.29580000
H      -46.85970000     -34.50680000     -68.72740000
H      -47.76020000     -32.90590000     -68.74760000
C      -45.79510000     -32.98690000     -69.80760000
H      -45.14350000     -32.89070000     -68.87990000
H      -45.30140000     -33.64990000     -70.50560000
C      -42.87490000     -32.68540000     -71.47640000
H      -41.80910000     -32.54030000     -71.81200000
H      -42.90770000     -32.98580000     -70.40410000
C      -43.60950000     -31.39190000     -71.65350000
C      -43.08410000     -30.49530000     -72.52830000
C      -44.95770000     -31.00730000     -71.12750000
H      -42.17060000     -30.61810000     -73.03450000
C      -45.30110000     -29.75930000     -71.61250000
C      -46.07950000     -31.70200000     -70.49260000
C      -47.18150000     -30.90260000     -70.36370000
S      -44.06110000     -29.02810000     -72.66870000
S      -46.96080000     -29.35310000     -71.20310000
H      -48.22270000     -31.09140000     -69.94360000
