40
Properties=species:S:1:pos:R:3 #=T CELL(abcABC):=T 1.889726e+02=T 90.00000=T Traj:=T positionsangstrom=T Step:=T 0=T Bead:=T pbc="F F F"
C      -43.43680000     -33.18930000     -73.10340000
C      -43.91090000     -31.89990000     -72.70690000
C      -45.29500000     -31.67710000     -72.87890000
C      -46.19020000     -32.63160000     -73.41500000
C      -45.67710000     -33.88180000     -73.90510000
C      -44.26600000     -34.09110000     -73.76140000
H      -42.38370000     -33.41840000     -72.92450000
H      -45.76600000     -30.66910000     -72.65650000
H      -46.39110000     -34.60090000     -74.24020000
H      -43.81740000     -35.00870000     -74.11380000
C      -47.56680000     -32.19300000     -73.55280000
H      -48.25570000     -32.98290000     -73.99380000
H      -47.62940000     -31.32890000     -74.34010000
C      -43.12190000     -30.80660000     -72.02370000
H      -42.19460000     -30.56020000     -72.55680000
H      -43.79770000     -29.98160000     -71.89770000
S      -48.45360000     -31.37740000     -72.08380000
S      -42.65590000     -31.25150000     -70.32070000
C      -48.83100000     -32.64800000     -70.83560000
H      -49.56040000     -32.09510000     -70.28450000
H      -49.35670000     -33.50810000     -71.18750000
C      -44.34240000     -31.23030000     -69.52570000
H      -45.16040000     -31.33630000     -70.22570000
H      -44.45690000     -30.32110000     -68.99500000
C      -44.54360000     -32.49160000     -68.62210000
H      -43.74920000     -32.61160000     -67.87440000
H      -45.49160000     -32.38480000     -68.00110000
C      -47.70500000     -33.14720000     -69.89370000
H      -48.22370000     -33.48140000     -68.96460000
H      -47.03230000     -32.35640000     -69.62980000
C      -46.85110000     -34.26240000     -70.46220000
C      -47.30100000     -35.25000000     -71.30930000
C      -45.40220000     -34.52710000     -70.17940000
H      -48.33830000     -35.45830000     -71.49460000
C      -44.91320000     -35.68840000     -70.72050000
C      -44.45930000     -33.75920000     -69.40870000
C      -43.14310000     -34.33750000     -69.57730000
S      -46.09290000     -36.59810000     -71.56430000
S      -43.22790000     -35.94900000     -70.32670000
H      -42.30890000     -33.92360000     -68.85430000
