40
Properties=species:S:1:pos:R:3 #=T CELL(abcABC):=T 1.889726e+02=T 90.00000=T Traj:=T positionsangstrom=T Step:=T 0=T Bead:=T pbc="F F F"
C      -43.21870000     -33.09790000     -73.10300000
C      -43.83180000     -31.99410000     -72.52290000
C      -45.21790000     -31.93450000     -72.50800000
C      -45.91580000     -32.90570000     -73.28230000
C      -45.24510000     -33.93350000     -74.01560000
C      -43.85990000     -34.03130000     -73.90790000
H      -42.10990000     -33.09240000     -73.11830000
H      -45.72510000     -31.21080000     -71.96310000
H      -45.82770000     -34.67900000     -74.64190000
H      -43.29780000     -34.81020000     -74.44220000
C      -47.43260000     -32.79340000     -73.41810000
H      -47.94640000     -33.74850000     -73.13230000
H      -47.73670000     -32.62820000     -74.37920000
C      -43.03050000     -30.85560000     -71.84090000
H      -42.00180000     -30.74240000     -72.35220000
H      -43.56850000     -29.89560000     -71.78050000
S      -48.24590000     -31.45820000     -72.32090000
S      -42.71700000     -31.23030000     -69.98650000
C      -48.77190000     -32.42010000     -70.84770000
H      -49.34980000     -31.73030000     -70.21410000
H      -49.47430000     -33.17290000     -71.05220000
C      -44.41030000     -31.21160000     -69.03750000
H      -45.13610000     -30.74420000     -69.68020000
H      -44.33160000     -30.63040000     -68.12560000
C      -44.76110000     -32.55930000     -68.53330000
H      -44.08790000     -32.84400000     -67.62400000
H      -45.80040000     -32.69270000     -68.08640000
C      -47.62830000     -32.89760000     -69.93900000
H      -48.01360000     -33.19240000     -68.92380000
H      -46.99410000     -32.02840000     -69.80970000
C      -46.96770000     -34.14140000     -70.57500000
C      -47.54590000     -35.15480000     -71.25240000
C      -45.60000000     -34.41110000     -70.26220000
H      -48.53860000     -35.31420000     -71.61460000
C      -45.05690000     -35.53880000     -70.95720000
C      -44.57540000     -33.77150000     -69.46060000
C      -43.36660000     -34.47620000     -69.47650000
S      -46.33320000     -36.38470000     -71.83800000
S      -43.37510000     -35.90580000     -70.57540000
H      -42.50850000     -34.17870000     -68.98380000
