40
Properties=species:S:1:pos:R:3 #=T CELL(abcABC):=T 1.889726e+02=T 90.00000=T Traj:=T positionsangstrom=T Step:=T 0=T Bead:=T pbc="F F F"
C      -44.63910000     -37.84540000     -71.36070000
C      -45.56140000     -36.98730000     -70.70180000
C      -45.04510000     -36.17450000     -69.73630000
C      -43.65870000     -36.13740000     -69.42540000
C      -42.78520000     -36.94510000     -70.15810000
C      -43.28900000     -37.83650000     -71.10960000
H      -45.01230000     -38.50350000     -72.20820000
H      -45.75930000     -35.51620000     -69.19050000
H      -41.75880000     -36.96160000     -69.93930000
H      -42.71200000     -38.50180000     -71.73230000
C      -43.12830000     -35.22780000     -68.39020000
H      -42.30800000     -35.78820000     -68.00140000
H      -43.87070000     -34.90620000     -67.66080000
C      -47.02790000     -37.00830000     -71.17630000
H      -46.92690000     -37.03110000     -72.24940000
H      -47.51050000     -37.95040000     -70.91390000
S      -42.41660000     -33.59540000     -69.11870000
S      -48.16650000     -35.64580000     -70.76770000
C      -43.91790000     -32.89450000     -69.98900000
H      -44.75470000     -33.26940000     -69.50800000
H      -43.81430000     -31.84210000     -69.70550000
C      -47.70810000     -34.12590000     -71.73600000
H      -48.57480000     -33.94640000     -72.41960000
H      -46.81620000     -34.34150000     -72.42160000
C      -47.57970000     -32.84320000     -70.95210000
H      -48.51060000     -32.64150000     -70.48020000
H      -46.82660000     -32.90520000     -70.08090000
C      -44.00010000     -33.09740000     -71.47150000
H      -44.69720000     -33.95580000     -71.75520000
H      -43.08590000     -33.39430000     -71.91430000
C      -44.45650000     -31.77360000     -72.11880000
C      -43.52140000     -30.88230000     -72.59910000
C      -45.82310000     -31.24320000     -72.21850000
H      -42.49700000     -31.06500000     -72.51220000
C      -45.81090000     -30.06170000     -72.96310000
C      -47.20020000     -31.64760000     -71.93500000
C      -48.08540000     -30.81450000     -72.54110000
S      -44.19160000     -29.36620000     -73.12520000
S      -47.34060000     -29.46590000     -73.49720000
H      -49.18070000     -30.78780000     -72.27290000
