40
Properties=species:S:1:pos:R:3 #=T CELL(abcABC):=T 1.889726e+02=T 90.00000=T Traj:=T positionsangstrom=T Step:=T 0=T Bead:=T pbc="F F F"
C      -44.92380000     -37.80710000     -71.36490000
C      -45.78580000     -36.99540000     -70.63860000
C      -45.26470000     -36.21600000     -69.59480000
C      -43.89890000     -36.21070000     -69.35400000
C      -43.08640000     -37.03380000     -70.08360000
C      -43.55650000     -37.86080000     -71.07250000
H      -45.24850000     -38.25510000     -72.22570000
H      -45.97310000     -35.61260000     -69.02910000
H      -41.95010000     -36.96130000     -69.90510000
H      -42.86410000     -38.49780000     -71.60450000
C      -43.45850000     -35.11970000     -68.35860000
H      -42.75410000     -35.57300000     -67.65720000
H      -44.28480000     -34.84570000     -67.79270000
C      -47.25530000     -37.16690000     -70.86590000
H      -47.52690000     -37.64960000     -71.83090000
H      -47.59570000     -37.75410000     -70.03150000
S      -42.49400000     -33.75670000     -69.08270000
S      -48.08040000     -35.54850000     -70.70340000
C      -43.64150000     -32.62330000     -69.94350000
H      -44.62710000     -32.73670000     -69.53180000
H      -43.31200000     -31.65850000     -69.65720000
C      -47.32230000     -34.36660000     -71.90000000
H      -47.92020000     -34.17160000     -72.83600000
H      -46.37310000     -34.86210000     -72.21580000
C      -47.11400000     -33.02340000     -71.16170000
H      -48.04790000     -32.83090000     -70.54220000
H      -46.38250000     -33.00850000     -70.44350000
C      -43.61190000     -32.83680000     -71.47590000
H      -44.20640000     -33.67050000     -71.80660000
H      -42.59140000     -32.86300000     -71.88690000
C      -44.26620000     -31.57100000     -72.16820000
C      -43.38730000     -30.68840000     -72.79910000
C      -45.64110000     -31.15350000     -72.29940000
H      -42.27590000     -30.78160000     -72.75460000
C      -45.78710000     -29.94210000     -72.98770000
C      -46.89440000     -31.72990000     -71.97350000
C      -47.95540000     -31.02580000     -72.48140000
S      -44.25940000     -29.31710000     -73.53760000
S      -47.47860000     -29.52980000     -73.23570000
H      -49.02090000     -31.15200000     -72.31210000
