40
Properties=species:S:1:pos:R:3 #=T CELL(abcABC):=T 1.889726e+02=T 90.00000=T Traj:=T positionsangstrom=T Step:=T 0=T Bead:=T pbc="F F F"
C      -44.96190000     -37.73040000     -71.32770000
C      -45.93000000     -36.96760000     -70.62580000
C      -45.46490000     -36.04390000     -69.66740000
C      -44.15280000     -35.87670000     -69.41870000
C      -43.22360000     -36.78170000     -70.02840000
C      -43.56460000     -37.68620000     -70.96630000
H      -45.34000000     -38.47030000     -72.13650000
H      -46.29950000     -35.52300000     -69.19250000
H      -42.25210000     -36.62030000     -69.69840000
H      -42.82300000     -38.20140000     -71.61700000
C      -43.58830000     -34.83920000     -68.38830000
H      -43.24470000     -35.37420000     -67.49190000
H      -44.39590000     -34.17310000     -67.98710000
C      -47.39110000     -37.11930000     -70.98770000
H      -47.54180000     -37.58530000     -71.96820000
H      -48.02240000     -37.61570000     -70.21980000
S      -42.24040000     -33.76740000     -69.08820000
S      -48.26010000     -35.39320000     -70.96650000
C      -43.32250000     -32.37030000     -69.74860000
H      -44.18120000     -32.28930000     -69.12040000
H      -42.79520000     -31.39870000     -69.62500000
C      -46.99070000     -34.25970000     -71.69800000
H      -47.38800000     -34.19440000     -72.69590000
H      -46.04210000     -34.78590000     -71.63270000
C      -47.01880000     -32.94580000     -70.89260000
H      -47.92060000     -32.83610000     -70.35980000
H      -46.09720000     -33.06020000     -70.20890000
C      -43.55900000     -32.67490000     -71.19610000
H      -44.16500000     -33.56540000     -71.42380000
H      -42.68710000     -33.01370000     -71.73680000
C      -44.23030000     -31.54220000     -71.98250000
C      -43.37180000     -30.63480000     -72.63570000
C      -45.60820000     -31.29940000     -72.22680000
H      -42.31670000     -30.70350000     -72.69970000
C      -45.80970000     -30.33290000     -73.18390000
C      -46.85030000     -31.75740000     -71.72270000
C      -47.96430000     -31.21180000     -72.22100000
S      -44.30990000     -29.63780000     -73.75460000
S      -47.45950000     -29.90200000     -73.41660000
H      -48.99090000     -31.49120000     -72.16900000
