40
Properties=species:S:1:pos:R:3 #=T CELL(abcABC):=T 1.889726e+02=T 90.00000=T Traj:=T positionsangstrom=T Step:=T 0=T Bead:=T pbc="F F F"
C      -43.15340000     -30.59060000     -73.00710000
C      -43.39380000     -30.58970000     -71.65530000
C      -44.65120000     -30.34010000     -71.05850000
C      -45.77830000     -30.31690000     -71.86940000
C      -45.53840000     -30.41890000     -73.26330000
C      -44.27330000     -30.50610000     -73.85470000
H      -42.26810000     -30.66050000     -73.52880000
H      -44.76380000     -30.10260000     -70.00450000
H      -46.44500000     -30.30710000     -73.90670000
H      -44.18810000     -30.53860000     -74.97650000
C      -47.14320000     -30.01890000     -71.26560000
H      -47.96730000     -30.36650000     -71.95980000
H      -47.27350000     -28.93390000     -71.04150000
C      -42.21880000     -30.81350000     -70.74430000
H      -41.48120000     -29.97220000     -70.83070000
H      -42.65450000     -30.72570000     -69.75740000
S      -47.53070000     -30.84730000     -69.61090000
S      -41.48010000     -32.46170000     -70.93170000
C      -47.27520000     -32.67540000     -69.82340000
H      -46.42150000     -32.91400000     -69.15820000
H      -48.03930000     -33.20270000     -69.32230000
C      -42.86380000     -33.57290000     -70.32710000
H      -43.28940000     -33.11760000     -69.36330000
H      -42.38940000     -34.45600000     -70.04290000
C      -43.95640000     -33.77260000     -71.39100000
H      -44.73730000     -32.97020000     -71.25540000
H      -43.47770000     -33.53910000     -72.33100000
C      -47.33440000     -33.11970000     -71.28320000
H      -46.58970000     -32.69850000     -71.88490000
H      -48.21620000     -32.77020000     -71.70210000
C      -47.27560000     -34.60060000     -71.43390000
C      -48.37850000     -35.39610000     -71.30730000
C      -46.05030000     -35.37990000     -71.47220000
H      -49.46590000     -35.18690000     -71.40100000
C      -46.31180000     -36.75390000     -71.46930000
C      -44.60980000     -35.16050000     -71.40910000
C      -43.82270000     -36.27740000     -71.31060000
S      -48.00020000     -37.10710000     -71.44930000
S      -44.87750000     -37.76170000     -71.47770000
H      -42.74420000     -36.34890000     -71.45300000
