40
Properties=species:S:1:pos:R:3 #=T CELL(abcABC):=T 1.889726e+02=T 90.00000=T Traj:=T positionsangstrom=T Step:=T 0=T Bead:=T pbc="F F F"
C      -43.28000000     -30.51080000     -73.07250000
C      -43.41220000     -30.52010000     -71.70230000
C      -44.66860000     -30.40910000     -71.02120000
C      -45.85130000     -30.24230000     -71.85130000
C      -45.63980000     -30.34260000     -73.21670000
C      -44.37880000     -30.45810000     -73.82830000
H      -42.31220000     -30.62470000     -73.54360000
H      -44.88320000     -30.56180000     -69.96140000
H      -46.48560000     -30.43910000     -73.84880000
H      -44.30350000     -30.49750000     -74.93770000
C      -47.24270000     -30.10200000     -71.31950000
H      -47.94540000     -30.37400000     -72.10810000
H      -47.51730000     -29.05590000     -71.14800000
C      -42.15060000     -30.66420000     -70.91950000
H      -41.33690000     -30.22930000     -71.54190000
H      -42.27850000     -30.29580000     -69.86260000
S      -47.62210000     -30.84320000     -69.66840000
S      -41.45940000     -32.35490000     -70.86370000
C      -46.98780000     -32.61760000     -69.89450000
H      -45.86570000     -32.59210000     -69.86050000
H      -47.30040000     -33.29630000     -69.02410000
C      -42.80440000     -33.60380000     -70.44560000
H      -43.24460000     -33.26170000     -69.51810000
H      -42.19710000     -34.51200000     -70.24300000
C      -43.84930000     -33.81650000     -71.55400000
H      -44.54420000     -33.00140000     -71.51150000
H      -43.39930000     -33.75340000     -72.53420000
C      -47.38240000     -33.18950000     -71.28220000
H      -46.66860000     -32.68810000     -72.00730000
H      -48.42320000     -32.95730000     -71.49700000
C      -47.24670000     -34.65360000     -71.35390000
C      -48.35540000     -35.49030000     -71.36840000
C      -46.02920000     -35.41270000     -71.37450000
H      -49.41780000     -35.27340000     -71.57950000
C      -46.30330000     -36.79050000     -71.34640000
C      -44.58850000     -35.18730000     -71.44490000
C      -43.88630000     -36.34100000     -71.41690000
S      -47.99960000     -37.17270000     -71.36160000
S      -44.84410000     -37.75530000     -71.33090000
H      -42.78100000     -36.46580000     -71.41520000
