40
Properties=species:S:1:pos:R:3 #=T CELL(abcABC):=T 1.889726e+02=T 90.00000=T Traj:=T positionsangstrom=T Step:=T 0=T Bead:=T pbc="F F F"
C      -47.16740000     -35.09260000     -74.36410000
C      -45.77780000     -34.95800000     -74.33770000
C      -44.98950000     -35.66570000     -73.44310000
C      -45.61310000     -36.46150000     -72.43860000
C      -47.03500000     -36.56170000     -72.38720000
C      -47.79200000     -36.01350000     -73.48270000
H      -47.71950000     -34.52600000     -75.16020000
H      -43.87030000     -35.46500000     -73.47380000
H      -47.49350000     -37.05610000     -71.53700000
H      -48.84840000     -36.17040000     -73.40970000
C      -44.82070000     -37.28980000     -71.32180000
H      -44.43010000     -38.17650000     -71.67380000
H      -45.56690000     -37.52940000     -70.53320000
C      -45.15570000     -33.98010000     -75.31360000
H      -44.62790000     -34.42030000     -76.11880000
H      -45.84860000     -33.28340000     -75.72670000
S      -43.43120000     -36.24320000     -70.72850000
S      -43.72950000     -32.99020000     -74.64510000
C      -44.38940000     -35.05510000     -69.75840000
H      -45.20420000     -34.72300000     -70.39580000
H      -44.94190000     -35.53290000     -68.94560000
C      -44.50170000     -31.74030000     -73.64390000
H      -45.62120000     -31.66350000     -73.91610000
H      -44.17750000     -30.64970000     -73.74140000
C      -44.37800000     -32.14960000     -72.13660000
H      -44.47070000     -33.21060000     -72.01650000
H      -43.27680000     -32.02430000     -71.91120000
C      -43.65650000     -33.73890000     -69.33170000
H      -43.11790000     -33.37610000     -70.19750000
H      -42.90300000     -34.00180000     -68.52700000
C      -44.65610000     -32.70730000     -68.79920000
C      -45.15040000     -32.66690000     -67.53230000
C      -45.30240000     -31.70330000     -69.64370000
H      -44.97930000     -33.34630000     -66.71410000
C      -46.19330000     -30.88300000     -68.93000000
C      -45.24190000     -31.40210000     -71.05810000
C      -46.12770000     -30.32420000     -71.35970000
S      -46.31920000     -31.35340000     -67.27900000
S      -46.90920000     -29.67500000     -69.92390000
H      -46.30300000     -29.92810000     -72.40060000
