40
Properties=species:S:1:pos:R:3 #=T CELL(abcABC):=T 1.889726e+02=T 90.00000=T Traj:=T positionsangstrom=T Step:=T 0=T Bead:=T pbc="F F F"
C      -43.34040000     -32.35790000     -73.40730000
C      -43.63360000     -31.26620000     -72.63450000
C      -44.88770000     -30.58650000     -72.82520000
C      -45.88340000     -31.13840000     -73.66830000
C      -45.53900000     -32.27440000     -74.39170000
C      -44.29840000     -32.89330000     -74.27830000
H      -42.29880000     -32.76110000     -73.31420000
H      -44.98340000     -29.67990000     -72.14010000
H      -46.31660000     -32.86490000     -74.94090000
H      -44.10770000     -33.84130000     -74.79170000
C      -47.20190000     -30.41630000     -73.63490000
H      -47.68650000     -30.48970000     -74.55420000
H      -46.96760000     -29.38320000     -73.26030000
C      -42.66410000     -30.76230000     -71.57410000
H      -41.61620000     -30.50690000     -71.80810000
H      -43.00740000     -29.85490000     -71.08970000
S      -48.19010000     -30.93910000     -72.21320000
S      -42.84870000     -32.19150000     -70.32100000
C      -48.00670000     -32.72750000     -72.16370000
H      -48.90510000     -33.26410000     -72.01240000
H      -47.61570000     -33.07370000     -73.09680000
C      -44.35490000     -31.79450000     -69.28610000
H      -45.14950000     -31.45780000     -69.94800000
H      -44.16440000     -30.97930000     -68.55990000
C      -44.71580000     -32.98300000     -68.44990000
H      -44.05600000     -33.09370000     -67.54020000
H      -45.67910000     -32.76500000     -68.08700000
C      -46.96080000     -32.99190000     -71.08630000
H      -47.32020000     -32.62020000     -70.11830000
H      -46.05970000     -32.46930000     -71.27530000
C      -46.64340000     -34.41230000     -70.90590000
C      -47.21450000     -35.41920000     -71.65710000
C      -45.59200000     -34.92760000     -70.12550000
H      -47.89490000     -35.28840000     -72.47390000
C      -45.25130000     -36.25350000     -70.39890000
C      -44.67520000     -34.39850000     -69.04110000
C      -43.78680000     -35.40340000     -68.60930000
S      -46.46130000     -37.01110000     -71.41060000
S      -44.02070000     -36.99670000     -69.35340000
H      -42.87930000     -35.27730000     -68.06350000
