40
Properties=species:S:1:pos:R:3 #=T CELL(abcABC):=T 1.889726e+02=T 90.00000=T Traj:=T positionsangstrom=T Step:=T 0=T Bead:=T pbc="F F F"
C      -43.28500000     -30.65760000     -73.11740000
C      -43.45670000     -30.65870000     -71.72120000
C      -44.74900000     -30.38540000     -71.17400000
C      -45.85680000     -30.05810000     -72.00520000
C      -45.64130000     -30.34460000     -73.42070000
C      -44.36950000     -30.59840000     -74.00500000
H      -42.28130000     -30.86830000     -73.51550000
H      -44.79500000     -30.42920000     -70.11760000
H      -46.47860000     -30.07070000     -74.12840000
H      -44.25520000     -30.65180000     -75.08190000
C      -47.22420000     -29.81000000     -71.39340000
H      -48.00380000     -29.93160000     -72.15160000
H      -47.18300000     -28.80270000     -71.10280000
C      -42.37120000     -30.86330000     -70.75250000
H      -41.62250000     -30.13140000     -70.96100000
H      -42.59100000     -30.83760000     -69.66650000
S      -47.64440000     -30.67030000     -69.88080000
S      -41.38160000     -32.49370000     -70.92640000
C      -47.20330000     -32.45580000     -70.13530000
H      -46.13850000     -32.50660000     -69.94350000
H      -47.64410000     -32.96410000     -69.34420000
C      -42.65910000     -33.81640000     -70.52430000
H      -42.94410000     -33.59400000     -69.46340000
H      -42.13220000     -34.79190000     -70.45080000
C      -43.95510000     -33.73100000     -71.37320000
H      -44.58020000     -32.98070000     -70.91460000
H      -43.67340000     -33.26490000     -72.29950000
C      -47.50900000     -33.22560000     -71.47230000
H      -46.88220000     -32.84590000     -72.22960000
H      -48.50390000     -33.14030000     -71.73440000
C      -47.28140000     -34.68530000     -71.15090000
C      -48.33460000     -35.52800000     -70.85780000
C      -46.03940000     -35.37940000     -71.28160000
H      -49.32510000     -35.19420000     -70.65980000
C      -46.21520000     -36.78360000     -71.24950000
C      -44.58450000     -35.09040000     -71.49960000
C      -43.83350000     -36.23400000     -71.73400000
S      -47.94100000     -37.28100000     -70.86760000
S      -44.73960000     -37.71770000     -71.39890000
H      -42.72960000     -36.25560000     -71.75240000
