40
Properties=species:S:1:pos:R:3 #=T CELL(abcABC):=T 1.889726e+02=T 90.00000=T Traj:=T positionsangstrom=T Step:=T 0=T Bead:=T pbc="F F F"
C      -43.28730000     -30.78960000     -72.97200000
C      -43.54190000     -30.64840000     -71.62610000
C      -44.79420000     -30.24720000     -71.13570000
C      -45.87440000     -30.25630000     -71.99830000
C      -45.63630000     -30.44260000     -73.37630000
C      -44.39940000     -30.78720000     -73.81200000
H      -42.28570000     -30.93970000     -73.34060000
H      -44.85100000     -30.01110000     -70.08570000
H      -46.56590000     -30.59010000     -73.98100000
H      -44.24040000     -31.02750000     -74.80020000
C      -47.24490000     -29.87880000     -71.50540000
H      -48.05150000     -30.12610000     -72.21100000
H      -47.40880000     -28.74320000     -71.35010000
C      -42.32800000     -30.87510000     -70.69950000
H      -41.64750000     -30.01520000     -70.79370000
H      -42.53050000     -30.83720000     -69.62570000
S      -47.67290000     -30.79460000     -69.82020000
S      -41.49810000     -32.42460000     -70.98210000
C      -47.14900000     -32.51260000     -70.00310000
H      -46.07370000     -32.60530000     -69.77060000
H      -47.79140000     -33.10720000     -69.24010000
C      -42.78340000     -33.58510000     -70.57710000
H      -43.15070000     -33.39720000     -69.60480000
H      -42.39110000     -34.58470000     -70.64120000
C      -43.89710000     -33.70220000     -71.63930000
H      -44.73030000     -32.95330000     -71.49590000
H      -43.51640000     -33.62930000     -72.65500000
C      -47.28670000     -33.15640000     -71.40920000
H      -46.56220000     -32.72870000     -72.16270000
H      -48.31270000     -32.89750000     -71.81450000
C      -47.15850000     -34.65460000     -71.29630000
C      -48.28570000     -35.42940000     -71.09160000
C      -45.97820000     -35.39120000     -71.38970000
H      -49.33030000     -35.13150000     -71.13080000
C      -46.18820000     -36.75200000     -71.17180000
C      -44.53230000     -35.13730000     -71.53480000
C      -43.77370000     -36.31060000     -71.55270000
S      -47.84020000     -37.09980000     -70.83820000
S      -44.84180000     -37.73460000     -71.42840000
H      -42.78330000     -36.42750000     -71.88860000
