40
Properties=species:S:1:pos:R:3 #=T CELL(abcABC):=T 1.889726e+02=T 90.00000=T Traj:=T positionsangstrom=T Step:=T 0=T Bead:=T pbc="F F F"
C      -43.32800000     -30.87200000     -72.99370000
C      -43.51600000     -30.57730000     -71.57660000
C      -44.76730000     -30.25270000     -71.07380000
C      -45.90800000     -30.32010000     -71.90490000
C      -45.75080000     -30.63770000     -73.24070000
C      -44.43540000     -30.87910000     -73.86180000
H      -42.34690000     -31.14620000     -73.33080000
H      -44.95300000     -30.02590000     -70.00010000
H      -46.53040000     -30.57540000     -73.94910000
H      -44.22020000     -31.17130000     -74.88180000
C      -47.27720000     -30.03260000     -71.46450000
H      -47.93990000     -30.45400000     -72.14840000
H      -47.48990000     -28.93700000     -71.42960000
C      -42.30340000     -30.61150000     -70.69250000
H      -41.55320000     -29.82690000     -71.06690000
H      -42.68920000     -30.44740000     -69.72940000
S      -47.78960000     -30.64460000     -69.87910000
S      -41.45810000     -32.24940000     -70.90210000
C      -47.02490000     -32.40120000     -69.86870000
H      -45.98320000     -32.29970000     -69.62350000
H      -47.47160000     -32.96360000     -69.02870000
C      -42.86420000     -33.46940000     -70.67590000
H      -43.64280000     -33.07650000     -69.97940000
H      -42.29010000     -34.19560000     -70.04680000
C      -43.59620000     -33.95910000     -71.97560000
H      -44.15590000     -33.11710000     -72.46370000
H      -42.82590000     -34.24520000     -72.70530000
C      -47.20010000     -33.15350000     -71.18510000
H      -46.51020000     -32.77240000     -71.95430000
H      -48.17550000     -32.94590000     -71.57060000
C      -47.10780000     -34.62040000     -71.17590000
C      -48.23750000     -35.42230000     -70.99680000
C      -45.91510000     -35.42830000     -71.33880000
H      -49.28800000     -35.04530000     -70.87880000
C      -46.24230000     -36.79340000     -71.24560000
C      -44.48800000     -35.22060000     -71.65790000
C      -43.85570000     -36.43970000     -71.68930000
S      -47.92600000     -37.11320000     -71.01980000
S      -44.84140000     -37.84340000     -71.33180000
H      -42.83320000     -36.59200000     -71.82730000
