40
Properties=species:S:1:pos:R:3 #=T CELL(abcABC):=T 1.889726e+02=T 90.00000=T Traj:=T positionsangstrom=T Step:=T 0=T Bead:=T pbc="F F F"
C      -43.00900000     -32.12390000     -73.22200000
C      -43.53040000     -31.41580000     -72.16940000
C      -44.69200000     -30.62230000     -72.42620000
C      -45.40790000     -30.78370000     -73.60530000
C      -44.93820000     -31.63340000     -74.63070000
C      -43.70260000     -32.22460000     -74.45770000
H      -42.02680000     -32.73250000     -73.04540000
H      -45.08650000     -29.95370000     -71.64800000
H      -45.52080000     -31.78200000     -75.50420000
H      -43.17310000     -32.76730000     -75.21980000
C      -46.79440000     -30.19050000     -73.79040000
H      -47.12240000     -30.39560000     -74.80830000
H      -46.87230000     -29.12080000     -73.51960000
C      -42.72450000     -31.32010000     -70.94060000
H      -41.72710000     -31.40640000     -71.11440000
H      -42.66810000     -30.30740000     -70.54890000
S      -48.07420000     -30.92940000     -72.69690000
S      -43.18340000     -32.38310000     -69.52190000
C      -47.61940000     -32.78050000     -72.81660000
H      -48.49990000     -33.37250000     -73.22880000
H      -46.81660000     -32.98200000     -73.51820000
C      -44.83800000     -31.87640000     -69.10130000
H      -45.42120000     -31.69530000     -70.03550000
H      -44.83620000     -30.99740000     -68.48190000
C      -45.53950000     -32.99630000     -68.32870000
H      -45.12250000     -33.01020000     -67.30360000
H      -46.57680000     -32.79150000     -68.18410000
C      -47.21020000     -33.22270000     -71.39210000
H      -48.14790000     -33.07870000     -70.75960000
H      -46.37010000     -32.55620000     -71.03570000
C      -46.63180000     -34.62110000     -71.28800000
C      -46.81860000     -35.58560000     -72.25600000
C      -45.85670000     -35.04750000     -70.16350000
H      -47.20710000     -35.60310000     -73.30930000
C      -45.39560000     -36.33220000     -70.44440000
C      -45.31100000     -34.42600000     -68.96300000
C      -44.44780000     -35.31330000     -68.35350000
S      -45.96290000     -37.07470000     -71.85050000
S      -44.35410000     -36.93290000     -69.10220000
H      -43.96730000     -35.18130000     -67.32080000
