40
Properties=species:S:1:pos:R:3 #=T CELL(abcABC):=T 1.889726e+02=T 90.00000=T Traj:=T positionsangstrom=T Step:=T 0=T Bead:=T pbc="F F F"
C      -44.85050000     -34.08390000     -68.63190000
C      -46.09330000     -33.47090000     -68.77930000
C      -47.09480000     -34.05080000     -69.51860000
C      -47.05260000     -35.38410000     -69.88340000
C      -45.84030000     -36.03650000     -69.73490000
C      -44.74000000     -35.35390000     -69.13890000
H      -44.06660000     -33.49050000     -68.16330000
H      -48.06700000     -33.47210000     -69.59960000
H      -45.73570000     -37.06600000     -70.06370000
H      -43.72020000     -35.83220000     -69.02490000
C      -48.33140000     -36.00740000     -70.34430000
H      -49.25400000     -35.60350000     -69.83690000
H      -48.32760000     -37.07970000     -70.25980000
C      -46.28320000     -32.08400000     -68.30940000
H      -47.34080000     -31.74130000     -68.64600000
H      -46.29510000     -31.97090000     -67.23670000
S      -48.84880000     -35.51990000     -72.08810000
S      -45.08000000     -30.79720000     -68.91960000
C      -47.24200000     -35.29320000     -73.09100000
H      -46.57880000     -35.96950000     -72.48690000
H      -47.44660000     -35.64970000     -74.09550000
C      -45.93070000     -29.96610000     -70.41600000
H      -45.43410000     -29.00580000     -70.64910000
H      -47.02570000     -29.78630000     -70.12360000
C      -45.90100000     -30.97910000     -71.60240000
H      -46.58500000     -31.81000000     -71.43700000
H      -46.32980000     -30.51940000     -72.52780000
C      -46.75440000     -33.84170000     -73.05320000
H      -47.19700000     -33.39450000     -72.16920000
H      -47.28500000     -33.31530000     -73.86490000
C      -45.19730000     -33.78830000     -73.21910000
C      -44.47120000     -34.83370000     -73.78470000
C      -44.33680000     -32.74350000     -72.65900000
H      -44.75980000     -35.82340000     -74.17600000
C      -42.97140000     -33.02880000     -72.90370000
C      -44.53990000     -31.51120000     -71.90670000
C      -43.32340000     -30.85620000     -71.76710000
S      -42.72940000     -34.45670000     -73.85990000
S      -41.94220000     -31.81570000     -72.31150000
H      -43.04320000     -30.03920000     -71.19710000
