40
Properties=species:S:1:pos:R:3 #=T CELL(abcABC):=T 1.889726e+02=T 90.00000=T Traj:=T positionsangstrom=T Step:=T 0=T Bead:=T pbc="F F F"
C      -42.89880000     -32.22050000     -72.39580000
C      -43.58410000     -31.18610000     -71.79230000
C      -44.82300000     -30.73240000     -72.26440000
C      -45.19860000     -31.21810000     -73.50130000
C      -44.47240000     -32.16170000     -74.21500000
C      -43.35530000     -32.68810000     -73.64040000
H      -42.02570000     -32.67020000     -71.95400000
H      -45.32980000     -29.89400000     -71.77050000
H      -44.82370000     -32.43740000     -75.20090000
H      -42.84300000     -33.57580000     -74.02760000
C      -46.48600000     -30.64550000     -74.15100000
H      -46.48990000     -30.69850000     -75.26650000
H      -46.40650000     -29.62650000     -73.83070000
C      -43.16950000     -30.62630000     -70.43900000
H      -42.15400000     -30.31400000     -70.28710000
H      -43.65640000     -29.70270000     -70.17520000
S      -47.99550000     -31.17370000     -73.23130000
S      -43.52060000     -31.77440000     -68.96740000
C      -47.82700000     -33.00850000     -72.90320000
H      -48.78700000     -33.45110000     -73.29950000
H      -47.06520000     -33.47120000     -73.62000000
C      -45.35890000     -31.81340000     -68.93130000
H      -45.83520000     -31.50140000     -69.84570000
H      -45.81420000     -31.03280000     -68.27500000
C      -45.90850000     -33.25080000     -68.52370000
H      -45.76470000     -33.37460000     -67.44480000
H      -47.03190000     -33.23420000     -68.68750000
C      -47.43780000     -33.32740000     -71.48760000
H      -48.25380000     -33.24120000     -70.73400000
H      -46.78810000     -32.56520000     -71.16790000
C      -46.76940000     -34.69190000     -71.40530000
C      -46.86220000     -35.63810000     -72.36650000
C      -45.79400000     -35.02700000     -70.41530000
H      -47.58140000     -35.64060000     -73.20630000
C      -45.19220000     -36.23170000     -70.65340000
C      -45.29110000     -34.46110000     -69.18630000
C      -44.42470000     -35.24790000     -68.53880000
S      -45.79010000     -36.98980000     -72.19440000
S      -44.01370000     -36.70430000     -69.42530000
H      -44.02300000     -35.08170000     -67.54900000
