40
Properties=species:S:1:pos:R:3 #=T CELL(abcABC):=T 1.889726e+02=T 90.00000=T Traj:=T positionsangstrom=T Step:=T 0=T Bead:=T pbc="F F F"
C      -42.89590000     -32.22660000     -71.96020000
C      -43.50210000     -31.05510000     -71.42790000
C      -44.64070000     -30.46760000     -72.10170000
C      -45.06510000     -31.05710000     -73.29330000
C      -44.42190000     -32.20720000     -73.80970000
C      -43.34110000     -32.79790000     -73.16500000
H      -42.10540000     -32.70490000     -71.31380000
H      -45.04210000     -29.52740000     -71.88800000
H      -44.76710000     -32.63110000     -74.72690000
H      -42.85570000     -33.74390000     -73.51930000
C      -46.30910000     -30.51160000     -74.05090000
H      -46.22690000     -30.86490000     -75.09140000
H      -46.36930000     -29.41590000     -74.28560000
C      -43.10720000     -30.53100000     -70.04150000
H      -42.08460000     -30.81070000     -69.71630000
H      -43.16660000     -29.45740000     -70.17700000
S      -47.89860000     -31.19720000     -73.24510000
S      -44.09070000     -31.32300000     -68.65860000
C      -47.58950000     -33.02360000     -73.25400000
H      -48.39570000     -33.37270000     -73.99080000
H      -46.59440000     -33.11630000     -73.83760000
C      -45.78300000     -31.92190000     -69.25260000
H      -45.68260000     -31.90510000     -70.35260000
H      -46.44750000     -31.12280000     -68.84070000
C      -46.18400000     -33.32280000     -68.70780000
H      -45.85060000     -33.32660000     -67.64850000
H      -47.26810000     -33.45230000     -68.72200000
C      -47.57930000     -33.65130000     -71.83490000
H      -48.60270000     -33.93860000     -71.58490000
H      -47.29400000     -32.93720000     -71.08310000
C      -46.66310000     -34.82490000     -71.74200000
C      -46.58720000     -35.85010000     -72.69590000
C      -45.80510000     -35.19410000     -70.63070000
H      -47.26470000     -35.89410000     -73.58520000
C      -45.05680000     -36.31310000     -70.83230000
C      -45.51210000     -34.56230000     -69.32830000
C      -44.57830000     -35.32280000     -68.65190000
S      -45.42670000     -37.10210000     -72.32390000
S      -44.00590000     -36.71320000     -69.54750000
H      -44.17430000     -35.13270000     -67.70980000
