40
Properties=species:S:1:pos:R:3 #=T CELL(abcABC):=T 1.889726e+02=T 90.00000=T Traj:=T positionsangstrom=T Step:=T 0=T Bead:=T pbc="F F F"
C      -44.81430000     -32.10620000     -67.76060000
C      -43.84790000     -33.02370000     -68.22810000
C      -44.36810000     -34.29080000     -68.53790000
C      -45.67250000     -34.70810000     -68.22100000
C      -46.52350000     -33.77150000     -67.57760000
C      -46.11770000     -32.48790000     -67.40050000
H      -44.44030000     -31.08990000     -67.63280000
H      -43.61740000     -35.04920000     -68.85580000
H      -47.55450000     -33.98040000     -67.50430000
H      -46.76950000     -31.76970000     -67.10050000
C      -46.16390000     -36.12360000     -68.45170000
H      -47.27330000     -36.15480000     -68.62000000
H      -45.84930000     -36.75990000     -67.65320000
C      -42.38670000     -32.62730000     -68.43220000
H      -42.15670000     -31.83800000     -67.74390000
H      -41.75860000     -33.51880000     -68.34350000
S      -45.63480000     -36.90400000     -70.02360000
S      -42.18770000     -31.76160000     -70.13660000
C      -46.50210000     -35.74170000     -71.24560000
H      -47.34490000     -36.20490000     -71.79140000
H      -46.96550000     -34.91010000     -70.69110000
C      -43.42420000     -32.65470000     -71.12340000
H      -43.27210000     -33.71070000     -70.98000000
H      -43.10110000     -32.54790000     -72.18200000
C      -44.98190000     -32.28310000     -71.02870000
H      -45.59150000     -33.14950000     -70.72860000
H      -45.12640000     -31.36650000     -70.30780000
C      -45.52680000     -35.23320000     -72.28280000
H      -45.27270000     -36.02510000     -72.97530000
H      -44.54220000     -34.85320000     -71.87320000
C      -46.06490000     -34.25350000     -73.26030000
C      -46.60490000     -34.77330000     -74.40830000
C      -46.00350000     -32.86540000     -73.32810000
H      -46.66370000     -35.81910000     -74.60680000
C      -46.34910000     -32.36170000     -74.54570000
C      -45.51170000     -31.85690000     -72.39610000
C      -45.51640000     -30.64570000     -72.99990000
S      -46.95350000     -33.59020000     -75.60510000
S      -46.23140000     -30.68070000     -74.64670000
H      -45.12360000     -29.71760000     -72.66250000
