40
Properties=species:S:1:pos:R:3 #=T CELL(abcABC):=T 1.889726e+02=T 90.00000=T Traj:=T positionsangstrom=T Step:=T 0=T Bead:=T pbc="F F F"
C      -42.80490000     -32.43730000     -71.81430000
C      -43.51640000     -31.38740000     -71.20460000
C      -44.62710000     -30.92040000     -71.94870000
C      -44.96590000     -31.33390000     -73.23950000
C      -44.16190000     -32.26550000     -73.89680000
C      -43.09430000     -32.80230000     -73.12890000
H      -41.95070000     -32.92670000     -71.36040000
H      -45.10750000     -30.03970000     -71.51210000
H      -44.27510000     -32.67690000     -74.89760000
H      -42.43130000     -33.50340000     -73.61730000
C      -46.17190000     -30.63120000     -73.79330000
H      -46.14770000     -30.72350000     -74.90670000
H      -46.04230000     -29.54850000     -73.72170000
C      -43.44490000     -30.88290000     -69.78660000
H      -42.39290000     -30.66880000     -69.58980000
H      -43.95050000     -29.93310000     -69.72120000
S      -47.72040000     -31.28540000     -73.10190000
S      -44.21940000     -32.00220000     -68.55220000
C      -47.73890000     -33.09480000     -73.38560000
H      -48.44740000     -33.32300000     -74.21850000
H      -46.72820000     -33.24260000     -73.81660000
C      -46.00200000     -31.91660000     -69.14690000
H      -45.96320000     -31.59420000     -70.12880000
H      -46.47720000     -31.08230000     -68.61410000
C      -46.73040000     -33.22720000     -68.94950000
H      -47.05820000     -33.38480000     -67.90320000
H      -47.64650000     -33.29540000     -69.55800000
C      -48.03710000     -33.97650000     -72.14500000
H      -48.97490000     -34.58410000     -72.30740000
H      -48.17520000     -33.31960000     -71.29340000
C      -46.83590000     -34.90700000     -71.87560000
C      -46.38840000     -35.75750000     -72.85160000
C      -45.94520000     -34.93300000     -70.73910000
H      -46.93080000     -36.06940000     -73.69870000
C      -44.87620000     -35.81750000     -70.94470000
C      -45.80060000     -34.33500000     -69.43810000
C      -44.82800000     -34.85340000     -68.71220000
S      -44.98630000     -36.65920000     -72.44980000
S      -43.89650000     -36.11330000     -69.57260000
H      -44.48320000     -34.58990000     -67.72390000
