40
Properties=species:S:1:pos:R:3 #=T CELL(abcABC):=T 1.889726e+02=T 90.00000=T Traj:=T positionsangstrom=T Step:=T 0=T Bead:=T pbc="F F F"
C      -46.36280000     -31.57610000     -67.85440000
C      -46.61710000     -32.26330000     -69.09040000
C      -45.62370000     -32.13580000     -70.05890000
C      -44.38090000     -31.50710000     -69.89100000
C      -44.23860000     -30.79980000     -68.68620000
C      -45.19810000     -30.80050000     -67.69630000
H      -47.09640000     -31.71490000     -67.04870000
H      -45.76710000     -32.53070000     -71.01050000
H      -43.29670000     -30.28560000     -68.44210000
H      -45.02630000     -30.16740000     -66.80630000
C      -43.35630000     -31.40320000     -70.95440000
H      -42.88840000     -30.39620000     -70.74920000
H      -43.70980000     -31.42970000     -71.99840000
C      -47.87320000     -33.05480000     -69.46260000
H      -48.75480000     -32.86550000     -68.88590000
H      -48.10800000     -32.79630000     -70.55390000
S      -41.92270000     -32.46350000     -70.91560000
S      -47.59970000     -34.83640000     -69.05600000
C      -42.63400000     -34.09130000     -70.72320000
H      -41.98350000     -34.68110000     -70.11160000
H      -43.60520000     -34.05120000     -70.18210000
C      -45.96860000     -35.37720000     -69.61870000
H      -45.67640000     -36.07850000     -68.81670000
H      -45.29130000     -34.52530000     -69.51320000
C      -45.94790000     -36.14390000     -70.96780000
H      -44.99220000     -36.64430000     -70.99770000
H      -46.80060000     -36.87920000     -70.88930000
C      -42.91160000     -34.82790000     -72.07960000
H      -43.20830000     -35.82070000     -71.79110000
H      -41.94910000     -34.77170000     -72.60070000
C      -43.92280000     -34.21530000     -72.99800000
C      -43.45860000     -33.29390000     -73.93140000
C      -45.36600000     -34.30890000     -72.89300000
H      -42.39700000     -33.16740000     -73.96840000
C      -45.98640000     -33.65330000     -73.91590000
C      -46.23080000     -35.19650000     -72.13750000
C      -47.52780000     -35.04870000     -72.53950000
S      -44.86510000     -32.62030000     -74.84070000
S      -47.77160000     -33.93470000     -73.87130000
H      -48.29520000     -35.59360000     -71.98860000
