40
Properties=species:S:1:pos:R:3 #=T CELL(abcABC):=T 1.889726e+02=T 90.00000=T Traj:=T positionsangstrom=T Step:=T 0=T Bead:=T pbc="F F F"
C      -46.52070000     -32.38710000     -67.50590000
C      -46.90050000     -32.70300000     -68.84370000
C      -45.97430000     -32.21790000     -69.86240000
C      -44.77060000     -31.50940000     -69.55520000
C      -44.39560000     -31.39310000     -68.21760000
C      -45.31380000     -31.75680000     -67.24890000
H      -47.24350000     -32.63000000     -66.74020000
H      -46.15750000     -32.26020000     -70.94470000
H      -43.42510000     -30.91850000     -68.06090000
H      -45.05640000     -31.47870000     -66.23570000
C      -43.84970000     -30.95260000     -70.58750000
H      -43.70870000     -29.89100000     -70.31110000
H      -44.34130000     -30.89550000     -71.57650000
C      -48.03250000     -33.64620000     -69.20550000
H      -48.79010000     -33.71310000     -68.36110000
H      -48.50950000     -33.28910000     -70.13360000
S      -42.23130000     -31.79010000     -70.69400000
S      -47.57310000     -35.39770000     -69.44540000
C      -42.50930000     -33.60380000     -70.73700000
H      -41.56560000     -33.96160000     -70.22880000
H      -43.34010000     -33.81530000     -70.07890000
C      -45.73460000     -35.39060000     -69.83950000
H      -45.23510000     -36.02370000     -69.07960000
H      -45.39810000     -34.35210000     -69.82810000
C      -45.41830000     -36.02510000     -71.24320000
H      -44.35550000     -36.24470000     -71.31940000
H      -45.85580000     -36.91290000     -71.20070000
C      -42.62790000     -34.17360000     -72.14180000
H      -42.68750000     -35.27340000     -71.96320000
H      -41.72610000     -33.99910000     -72.66410000
C      -43.73170000     -33.70200000     -73.03390000
C      -43.48150000     -32.76770000     -74.02670000
C      -45.10690000     -34.21050000     -73.02530000
H      -42.48020000     -32.40270000     -74.25030000
C      -45.86400000     -33.53700000     -73.98410000
C      -45.93710000     -35.11500000     -72.31910000
C      -47.24460000     -35.12340000     -72.66440000
S      -44.92490000     -32.38640000     -75.01830000
S      -47.53450000     -34.10080000     -74.10570000
H      -47.92210000     -35.89510000     -72.29320000
