40
Properties=species:S:1:pos:R:3 #=T CELL(abcABC):=T 1.889726e+02=T 90.00000=T Traj:=T positionsangstrom=T Step:=T 0=T Bead:=T pbc="F F F"
C      -47.32680000     -35.08700000     -74.32990000
C      -45.92250000     -34.73790000     -74.34330000
C      -45.07880000     -35.41060000     -73.40440000
C      -45.51900000     -36.51820000     -72.66350000
C      -46.77800000     -36.91670000     -72.88760000
C      -47.70380000     -36.19940000     -73.66340000
H      -48.04850000     -34.42060000     -74.78670000
H      -44.09140000     -35.00300000     -73.19080000
H      -47.01480000     -37.93310000     -72.47620000
H      -48.78120000     -36.35670000     -73.62560000
C      -44.59980000     -37.30240000     -71.72220000
H      -43.99090000     -37.96700000     -72.40680000
H      -45.13280000     -37.91370000     -71.07720000
C      -45.58150000     -33.47580000     -75.13610000
H      -45.51650000     -33.83760000     -76.11970000
H      -46.43690000     -32.81310000     -75.11530000
S      -43.48120000     -36.34680000     -70.67920000
S      -43.97130000     -32.67770000     -74.75410000
C      -44.67990000     -35.02300000     -70.13870000
H      -45.16590000     -34.47160000     -70.94630000
H      -45.42300000     -35.52890000     -69.44790000
C      -44.21700000     -31.43610000     -73.40150000
H      -45.07140000     -30.73530000     -73.62680000
H      -43.25300000     -30.79940000     -73.48270000
C      -44.24930000     -32.10340000     -72.02150000
H      -44.71600000     -33.13170000     -72.17180000
H      -43.14950000     -32.28840000     -71.65650000
C      -43.91580000     -34.05490000     -69.23160000
H      -43.01760000     -33.65310000     -69.79240000
H      -43.54340000     -34.59450000     -68.39720000
C      -44.71640000     -32.85860000     -68.77080000
C      -45.11940000     -32.78420000     -67.47270000
C      -45.20560000     -31.80790000     -69.54990000
H      -44.77250000     -33.44250000     -66.68770000
C      -46.06350000     -31.00950000     -68.82570000
C      -45.06890000     -31.38210000     -70.96200000
C      -45.90910000     -30.29620000     -71.19570000
S      -46.23870000     -31.46690000     -67.14900000
S      -46.81120000     -29.77960000     -69.80790000
H      -46.16870000     -29.78380000     -72.09750000
