40
Properties=species:S:1:pos:R:3 #=T CELL(abcABC):=T 1.889726e+02=T 90.00000=T Traj:=T positionsangstrom=T Step:=T 0=T Bead:=T pbc="F F F"
C      -46.23130000     -32.81400000     -67.73970000
C      -46.58830000     -32.85600000     -69.10870000
C      -45.87400000     -32.09680000     -69.98210000
C      -44.81280000     -31.33020000     -69.58350000
C      -44.56140000     -31.17350000     -68.16850000
C      -45.23970000     -31.92210000     -67.24170000
H      -46.71140000     -33.45500000     -67.08310000
H      -46.11030000     -32.21050000     -71.05890000
H      -43.76290000     -30.55840000     -67.85380000
H      -45.03350000     -31.91430000     -66.18450000
C      -43.94890000     -30.75130000     -70.68640000
H      -43.86230000     -29.62040000     -70.67560000
H      -44.59100000     -31.03060000     -71.59400000
C      -47.67310000     -33.76560000     -69.60930000
H      -48.65590000     -33.44290000     -69.21490000
H      -47.83650000     -33.62810000     -70.68970000
S      -42.29570000     -31.52200000     -70.82550000
S      -47.45990000     -35.54210000     -69.20110000
C      -42.69160000     -33.25690000     -70.42720000
H      -41.95790000     -33.64870000     -69.73400000
H      -43.61930000     -33.23470000     -69.82050000
C      -45.70300000     -35.83110000     -69.89910000
H      -45.23960000     -36.61690000     -69.31160000
H      -45.14260000     -34.86180000     -69.83240000
C      -45.71740000     -36.27850000     -71.37050000
H      -44.70380000     -36.62400000     -71.59630000
H      -46.24250000     -37.19130000     -71.62900000
C      -42.90300000     -34.19380000     -71.69330000
H      -43.33530000     -35.20750000     -71.37800000
H      -41.96250000     -34.43650000     -72.15870000
C      -43.91100000     -33.67160000     -72.75650000
C      -43.55260000     -32.63460000     -73.58620000
C      -45.19730000     -34.20430000     -73.04080000
H      -42.59500000     -32.12230000     -73.53630000
C      -45.85290000     -33.53330000     -74.06130000
C      -46.07290000     -35.22890000     -72.44620000
C      -47.32080000     -35.21130000     -73.01120000
S      -44.86890000     -32.21770000     -74.74360000
S      -47.42320000     -34.13900000     -74.33270000
H      -48.08790000     -35.81730000     -72.61300000
