40
Properties=species:S:1:pos:R:3 #=T CELL(abcABC):=T 1.889726e+02=T 90.00000=T Traj:=T positionsangstrom=T Step:=T 0=T Bead:=T pbc="F F F"
C      -46.58690000     -32.73090000     -67.77640000
C      -46.77540000     -32.92590000     -69.12100000
C      -45.89740000     -32.17750000     -69.99040000
C      -44.83680000     -31.42300000     -69.55260000
C      -44.58270000     -31.46550000     -68.13960000
C      -45.53920000     -31.95610000     -67.28390000
H      -47.30090000     -33.10930000     -67.06160000
H      -46.07520000     -32.21280000     -71.08140000
H      -43.74980000     -30.97030000     -67.68350000
H      -45.44370000     -32.08450000     -66.24350000
C      -43.83840000     -30.95610000     -70.60410000
H      -43.60880000     -29.92020000     -70.59470000
H      -44.31290000     -31.19940000     -71.61870000
C      -47.89640000     -33.81770000     -69.74870000
H      -48.85080000     -33.84920000     -69.17930000
H      -47.97320000     -33.70410000     -70.87400000
S      -42.19320000     -31.73590000     -70.44790000
S      -47.44340000     -35.64020000     -69.54390000
C      -42.58870000     -33.56250000     -70.54260000
H      -41.86210000     -34.12930000     -69.90440000
H      -43.56620000     -33.61510000     -70.07020000
C      -45.68760000     -35.80760000     -70.03760000
H      -45.17850000     -36.50150000     -69.33570000
H      -45.18710000     -34.81370000     -69.96380000
C      -45.33310000     -36.28440000     -71.58030000
H      -44.31800000     -36.47470000     -71.61780000
H      -45.71250000     -37.22620000     -71.83110000
C      -42.69640000     -34.20840000     -71.96800000
H      -42.80140000     -35.24390000     -71.76700000
H      -41.85560000     -34.20030000     -72.56650000
C      -43.73430000     -33.53810000     -72.81370000
C      -43.58350000     -32.39420000     -73.65770000
C      -45.11440000     -34.05730000     -72.98420000
H      -42.74480000     -31.76430000     -73.78580000
C      -45.91730000     -33.23800000     -73.78680000
C      -45.91750000     -35.23560000     -72.54580000
C      -47.15060000     -35.26660000     -73.10960000
S      -45.10890000     -31.86870000     -74.42450000
S      -47.39890000     -34.02270000     -74.30210000
H      -47.92060000     -36.00350000     -73.11630000
