40
Properties=species:S:1:pos:R:3 #=T CELL(abcABC):=T 1.889726e+02=T 90.00000=T Traj:=T positionsangstrom=T Step:=T 0=T Bead:=T pbc="F F F"
C      -45.38090000     -34.26220000     -74.10880000
C      -45.98870000     -35.11170000     -73.25050000
C      -47.16430000     -34.70560000     -72.60320000
C      -47.58770000     -33.34350000     -72.70350000
C      -46.93260000     -32.49060000     -73.55820000
C      -45.85590000     -32.92450000     -74.33230000
H      -44.41660000     -34.63350000     -74.58590000
H      -47.74070000     -35.41350000     -71.91290000
H      -47.16570000     -31.39760000     -73.56270000
H      -45.29860000     -32.32980000     -75.01670000
C      -48.74970000     -32.85250000     -71.96320000
H      -49.13600000     -33.60860000     -71.28170000
H      -49.60110000     -32.55530000     -72.63850000
C      -45.57090000     -36.56810000     -73.00980000
H      -46.43990000     -37.17110000     -73.12630000
H      -44.90380000     -36.77790000     -73.89340000
S      -48.45390000     -31.32660000     -70.87210000
S      -44.44470000     -36.83830000     -71.59760000
C      -47.93050000     -31.82500000     -69.24680000
H      -47.85240000     -30.80530000     -68.76270000
H      -48.71710000     -32.37120000     -68.69760000
C      -45.33070000     -36.22140000     -70.12370000
H      -45.74180000     -37.08500000     -69.57390000
H      -46.13830000     -35.67330000     -70.47760000
C      -44.49890000     -35.31800000     -69.19170000
H      -45.22200000     -34.88120000     -68.43350000
H      -43.93340000     -36.01280000     -68.64540000
C      -46.55850000     -32.55600000     -69.11700000
H      -46.74310000     -33.61630000     -69.44180000
H      -46.26500000     -32.60930000     -68.02900000
C      -45.30090000     -32.02160000     -69.89910000
C      -45.22040000     -30.74840000     -70.32370000
C      -44.13320000     -32.88480000     -70.13700000
H      -45.90820000     -29.86540000     -70.20060000
C      -43.18580000     -32.16240000     -70.83770000
C      -43.71400000     -34.22610000     -69.87770000
C      -42.46840000     -34.51960000     -70.43800000
S      -43.68710000     -30.45330000     -71.08080000
S      -41.82830000     -33.10150000     -71.29080000
H      -41.83510000     -35.41010000     -70.41070000
