40
Properties=species:S:1:pos:R:3 #=T CELL(abcABC):=T 1.889726e+02=T 90.00000=T Traj:=T positionsangstrom=T Step:=T 0=T Bead:=T pbc="F F F"
C      -46.87680000     -32.89520000     -67.81390000
C      -46.76770000     -33.14230000     -69.22040000
C      -45.70790000     -32.41820000     -69.86740000
C      -44.84420000     -31.49790000     -69.16900000
C      -44.97460000     -31.39090000     -67.77250000
C      -45.96950000     -32.13770000     -67.09070000
H      -47.69830000     -33.36270000     -67.34890000
H      -45.43460000     -32.66970000     -70.82980000
H      -44.30950000     -30.81660000     -67.16800000
H      -45.96380000     -32.21220000     -65.99570000
C      -43.73100000     -30.91420000     -69.94490000
H      -43.27990000     -29.99630000     -69.45660000
H      -44.17200000     -30.64420000     -70.96750000
C      -47.74830000     -34.05830000     -69.93730000
H      -48.69860000     -33.82710000     -69.48680000
H      -47.84100000     -33.79560000     -71.03920000
S      -42.26180000     -31.99430000     -69.98530000
S      -47.26150000     -35.82470000     -69.86540000
C      -42.78180000     -33.62840000     -70.65450000
H      -42.16940000     -34.26750000     -70.10530000
H      -43.81810000     -33.72190000     -70.32250000
C      -45.51170000     -35.93680000     -70.25400000
H      -45.05590000     -36.63340000     -69.56990000
H      -45.07980000     -34.99700000     -69.80000000
C      -44.97640000     -36.04100000     -71.67760000
H      -43.92580000     -35.93090000     -71.66250000
H      -45.29220000     -37.00750000     -72.06530000
C      -42.58610000     -33.71770000     -72.13900000
H      -42.35300000     -34.69500000     -72.54680000
H      -41.77350000     -33.05950000     -72.46270000
C      -43.79080000     -33.18110000     -72.95980000
C      -43.63450000     -32.13350000     -73.81240000
C      -45.10320000     -33.79860000     -73.06150000
H      -42.79400000     -31.52160000     -74.14980000
C      -45.96120000     -33.10700000     -73.94180000
C      -45.68110000     -35.07770000     -72.61110000
C      -46.96080000     -35.25490000     -73.11180000
S      -45.18500000     -31.89360000     -74.84480000
S      -47.49720000     -33.87930000     -74.11280000
H      -47.68190000     -36.05430000     -72.88300000
