40
Properties=species:S:1:pos:R:3 #=T CELL(abcABC):=T 1.889726e+02=T 90.00000=T Traj:=T positionsangstrom=T Step:=T 0=T Bead:=T pbc="F F F"
C      -46.67250000     -33.96090000     -67.91380000
C      -46.70010000     -33.84350000     -69.30890000
C      -46.01020000     -32.79250000     -69.94560000
C      -45.29430000     -31.86460000     -69.12310000
C      -45.23700000     -32.09920000     -67.79420000
C      -45.89910000     -33.09980000     -67.15140000
H      -47.23770000     -34.79410000     -67.57840000
H      -46.04910000     -32.86740000     -71.04170000
H      -44.65320000     -31.32630000     -67.24320000
H      -45.54810000     -33.35730000     -66.16840000
C      -44.49390000     -30.81430000     -69.77890000
H      -44.27490000     -30.08910000     -69.08270000
H      -45.03990000     -30.40050000     -70.62550000
C      -47.63920000     -34.79170000     -70.13240000
H      -48.60830000     -34.74580000     -69.54200000
H      -47.74850000     -34.50180000     -71.17060000
S      -42.74570000     -31.30640000     -70.31570000
S      -46.77510000     -36.54840000     -70.19320000
C      -42.68000000     -33.18380000     -70.40910000
H      -41.86170000     -33.63070000     -69.75820000
H      -43.61470000     -33.55050000     -69.99940000
C      -45.10140000     -36.09520000     -70.79250000
H      -44.40600000     -36.78280000     -70.30350000
H      -44.88950000     -35.11140000     -70.37120000
C      -44.91220000     -36.10300000     -72.23590000
H      -43.78110000     -36.03320000     -72.49510000
H      -45.23350000     -37.08320000     -72.70710000
C      -42.51420000     -33.52470000     -71.94690000
H      -42.49780000     -34.62820000     -72.08230000
H      -41.59360000     -33.19810000     -72.49080000
C      -43.70330000     -32.92390000     -72.75260000
C      -43.70970000     -31.61580000     -73.17660000
C      -44.93620000     -33.61820000     -73.10480000
H      -42.94720000     -30.86760000     -73.10040000
C      -45.89030000     -32.73930000     -73.76510000
C      -45.50070000     -34.92350000     -72.94620000
C      -46.84260000     -34.98840000     -73.37940000
S      -45.24720000     -31.13860000     -73.91030000
S      -47.38650000     -33.49070000     -74.11010000
H      -47.43730000     -35.90270000     -73.61600000
