40
Properties=species:S:1:pos:R:3 #=T CELL(abcABC):=T 1.889726e+02=T 90.00000=T Traj:=T positionsangstrom=T Step:=T 0=T Bead:=T pbc="F F F"
C      -47.29550000     -35.00540000     -74.20940000
C      -45.97720000     -34.57360000     -74.26610000
C      -44.97590000     -35.32710000     -73.61510000
C      -45.33110000     -36.37160000     -72.77530000
C      -46.68720000     -36.76790000     -72.66490000
C      -47.65680000     -36.12090000     -73.41070000
H      -48.05580000     -34.33560000     -74.63840000
H      -43.92280000     -34.99800000     -73.60780000
H      -47.07880000     -37.69520000     -72.14350000
H      -48.70890000     -36.44150000     -73.44590000
C      -44.31570000     -37.23550000     -72.03700000
H      -43.50270000     -37.48950000     -72.64880000
H      -44.71260000     -38.18220000     -71.66400000
C      -45.47210000     -33.51260000     -75.24250000
H      -45.27270000     -34.02170000     -76.16760000
H      -46.25180000     -32.75480000     -75.42200000
S      -43.44720000     -36.34030000     -70.65260000
S      -43.87710000     -32.73720000     -74.71850000
C      -44.78630000     -35.28480000     -69.98660000
H      -45.48240000     -34.90870000     -70.80430000
H      -45.49190000     -35.92660000     -69.34480000
C      -44.44970000     -31.64760000     -73.28940000
H      -45.30630000     -31.01960000     -73.65160000
H      -43.54840000     -31.08140000     -73.02320000
C      -44.95040000     -32.47020000     -72.11500000
H      -45.81270000     -33.03010000     -72.43080000
H      -44.19070000     -33.13030000     -71.79180000
C      -44.07400000     -34.10740000     -69.24140000
H      -43.47200000     -33.66200000     -69.96690000
H      -43.33220000     -34.50860000     -68.46450000
C      -44.95130000     -32.95030000     -68.75690000
C      -45.33290000     -32.91110000     -67.43710000
C      -45.31120000     -31.86220000     -69.58750000
H      -45.34780000     -33.55980000     -66.56430000
C      -46.00730000     -30.90490000     -68.84270000
C      -45.36410000     -31.56340000     -70.99220000
C      -46.02070000     -30.39080000     -71.33280000
S      -46.15160000     -31.36220000     -67.14270000
S      -46.47020000     -29.54640000     -69.81820000
H      -45.96420000     -29.79840000     -72.19910000
