40
Properties=species:S:1:pos:R:3 #=T CELL(abcABC):=T 1.889726e+02=T 90.00000=T Traj:=T positionsangstrom=T Step:=T 0=T Bead:=T pbc="F F F"
C      -46.84540000     -34.50530000     -67.70800000
C      -46.88290000     -34.35040000     -69.07310000
C      -46.29120000     -33.19850000     -69.58390000
C      -45.52040000     -32.29730000     -68.86240000
C      -45.46180000     -32.52800000     -67.49620000
C      -46.13720000     -33.61160000     -66.92180000
H      -47.25380000     -35.38120000     -67.24940000
H      -46.42220000     -33.07880000     -70.66250000
H      -44.84240000     -31.96480000     -66.79610000
H      -46.11440000     -33.76750000     -65.83310000
C      -44.84230000     -31.21360000     -69.66730000
H      -45.14860000     -30.28620000     -69.12670000
H      -45.29240000     -31.21910000     -70.64080000
C      -47.55650000     -35.28340000     -70.04940000
H      -48.45870000     -35.75410000     -69.63080000
H      -47.77270000     -34.78620000     -70.95220000
S      -42.92120000     -31.27520000     -69.64420000
S      -46.42360000     -36.75530000     -70.50300000
C      -42.69030000     -33.02550000     -70.34110000
H      -41.75750000     -33.29110000     -69.85490000
H      -43.45310000     -33.70410000     -69.99560000
C      -44.77380000     -35.98710000     -70.90110000
H      -43.98180000     -36.62790000     -70.61710000
H      -44.69940000     -35.09480000     -70.33100000
C      -44.61470000     -35.76040000     -72.45970000
H      -43.54840000     -35.60490000     -72.61600000
H      -44.84370000     -36.69080000     -72.96450000
C      -42.63990000     -32.97670000     -71.87810000
H      -42.31890000     -33.95030000     -72.24840000
H      -41.83720000     -32.30300000     -72.12180000
C      -43.85250000     -32.44560000     -72.69570000
C      -43.85640000     -31.12210000     -73.07840000
C      -44.89840000     -33.28160000     -73.22170000
H      -43.14440000     -30.40040000     -72.84090000
C      -45.81130000     -32.48480000     -73.99460000
C      -45.34350000     -34.64140000     -73.16790000
C      -46.57070000     -34.83920000     -73.82750000
S      -45.28450000     -30.80520000     -74.04550000
S      -47.18920000     -33.40920000     -74.64110000
H      -47.06810000     -35.77950000     -73.89870000
