40
Properties=species:S:1:pos:R:3 #=T CELL(abcABC):=T 1.889726e+02=T 90.00000=T Traj:=T positionsangstrom=T Step:=T 0=T Bead:=T pbc="F F F"
C      -46.83230000     -34.91770000     -68.38720000
C      -46.76780000     -34.37060000     -69.68210000
C      -46.22920000     -33.10970000     -69.91730000
C      -45.62270000     -32.42130000     -68.83720000
C      -45.67990000     -32.97040000     -67.58200000
C      -46.26880000     -34.21850000     -67.32940000
H      -47.21290000     -35.92560000     -68.22060000
H      -46.28510000     -32.80230000     -70.97530000
H      -45.17630000     -32.43690000     -66.78770000
H      -46.47200000     -34.62060000     -66.33050000
C      -44.84460000     -31.17830000     -69.14150000
H      -45.02320000     -30.39010000     -68.44590000
H      -44.97490000     -30.87600000     -70.19810000
C      -47.37060000     -35.13970000     -70.84070000
H      -48.40130000     -35.58400000     -70.61210000
H      -47.39800000     -34.43660000     -71.65790000
S      -43.02800000     -31.39650000     -69.13710000
S      -46.37310000     -36.74190000     -71.35910000
C      -42.61870000     -32.90330000     -70.25410000
H      -41.63070000     -33.18590000     -69.88200000
H      -43.25840000     -33.83590000     -70.14340000
C      -44.60940000     -36.20640000     -71.33340000
H      -43.96810000     -37.04220000     -71.06960000
H      -44.40390000     -35.39740000     -70.57250000
C      -44.20420000     -35.69180000     -72.72390000
H      -43.15400000     -35.33310000     -72.63680000
H      -44.30930000     -36.54730000     -73.42060000
C      -42.54160000     -32.61970000     -71.79280000
H      -42.00080000     -33.44200000     -72.30390000
H      -41.74720000     -31.83180000     -71.93910000
C      -43.82730000     -32.21800000     -72.45000000
C      -44.20030000     -30.91810000     -72.54190000
C      -44.87240000     -33.15610000     -72.93070000
H      -43.57050000     -30.09420000     -72.20310000
C      -45.91480000     -32.37690000     -73.54590000
C      -45.04940000     -34.53910000     -73.19570000
C      -46.20830000     -34.78950000     -73.92620000
S      -45.68000000     -30.67780000     -73.42270000
S      -47.16250000     -33.36080000     -74.25640000
H      -46.49070000     -35.76620000     -74.24480000
