40
Properties=species:S:1:pos:R:3 #=T CELL(abcABC):=T 1.889726e+02=T 90.00000=T Traj:=T positionsangstrom=T Step:=T 0=T Bead:=T pbc="F F F"
C      -46.84350000     -35.05420000     -68.39250000
C      -46.76060000     -34.49080000     -69.66760000
C      -46.14590000     -33.25520000     -69.90180000
C      -45.52060000     -32.60400000     -68.83170000
C      -45.64150000     -33.11430000     -67.52730000
C      -46.27950000     -34.32280000     -67.29430000
H      -47.51650000     -35.88990000     -68.24720000
H      -46.11580000     -32.87530000     -70.94540000
H      -45.21310000     -32.57780000     -66.69870000
H      -46.23010000     -34.81440000     -66.31340000
C      -44.90370000     -31.26330000     -69.05900000
H      -45.16260000     -30.47160000     -68.29600000
H      -45.20560000     -30.86240000     -70.01400000
C      -47.35850000     -35.19200000     -70.86210000
H      -48.33120000     -35.51260000     -70.71550000
H      -47.51900000     -34.54000000     -71.76220000
S      -42.98010000     -31.42030000     -68.94100000
S      -46.45760000     -36.74110000     -71.41590000
C      -42.82800000     -32.89970000     -70.11890000
H      -42.04120000     -33.45680000     -69.73930000
H      -43.72650000     -33.48270000     -70.01810000
C      -44.60810000     -36.19730000     -71.46700000
H      -44.08370000     -37.14690000     -71.25570000
H      -44.43450000     -35.59140000     -70.60610000
C      -44.07480000     -35.59390000     -72.79730000
H      -43.05110000     -35.31500000     -72.56680000
H      -43.95310000     -36.33130000     -73.51100000
C      -42.63390000     -32.47110000     -71.59740000
H      -42.15820000     -33.31220000     -72.02510000
H      -41.98230000     -31.58960000     -71.76040000
C      -43.92450000     -32.07880000     -72.42020000
C      -44.28130000     -30.77230000     -72.48760000
C      -44.75350000     -33.01680000     -73.15600000
H      -43.66790000     -30.00680000     -72.02990000
C      -45.86030000     -32.31260000     -73.69650000
C      -44.91550000     -34.42620000     -73.32480000
C      -46.04410000     -34.76970000     -74.04840000
S      -45.82430000     -30.61730000     -73.31790000
S      -47.04850000     -33.36700000     -74.43290000
H      -46.34830000     -35.70020000     -74.44970000
