40
Properties=species:S:1:pos:R:3 #=T CELL(abcABC):=T 1.889726e+02=T 90.00000=T Traj:=T positionsangstrom=T Step:=T 0=T Bead:=T pbc="F F F"
C      -46.82280000     -35.16490000     -68.42250000
C      -46.76860000     -34.51240000     -69.69290000
C      -46.11350000     -33.27500000     -69.80840000
C      -45.68780000     -32.61270000     -68.62230000
C      -45.76180000     -33.23060000     -67.35240000
C      -46.27560000     -34.51930000     -67.28230000
H      -47.19900000     -36.19220000     -68.44810000
H      -46.05630000     -32.68260000     -70.73200000
H      -45.44640000     -32.66300000     -66.48000000
H      -46.35890000     -34.91200000     -66.25300000
C      -44.89080000     -31.35470000     -68.71240000
H      -44.79280000     -30.88670000     -67.73320000
H      -45.46020000     -30.70610000     -69.35540000
C      -47.36700000     -35.25310000     -70.93170000
H      -48.21490000     -35.77050000     -70.58130000
H      -47.59260000     -34.46560000     -71.71370000
S      -43.03790000     -31.55600000     -69.10770000
S      -46.23440000     -36.65730000     -71.52440000
C      -42.71700000     -32.97560000     -70.21690000
H      -41.64190000     -33.33350000     -70.02670000
H      -43.36910000     -33.87350000     -70.06750000
C      -44.58490000     -35.88840000     -71.33220000
H      -43.87100000     -36.57180000     -70.80370000
H      -44.76110000     -34.96270000     -70.71650000
C      -44.03250000     -35.49330000     -72.74070000
H      -42.98130000     -35.16320000     -72.57990000
H      -44.08520000     -36.35620000     -73.45060000
C      -42.70050000     -32.50030000     -71.66930000
H      -42.22840000     -33.34220000     -72.25250000
H      -42.04010000     -31.64260000     -71.59560000
C      -44.08590000     -32.09100000     -72.22080000
C      -44.50940000     -30.82990000     -72.32400000
C      -44.92330000     -33.01220000     -72.99340000
H      -43.93540000     -30.09580000     -71.80750000
C      -45.92520000     -32.28650000     -73.57890000
C      -44.95030000     -34.42350000     -73.32140000
C      -45.95610000     -34.70700000     -74.19640000
S      -45.93730000     -30.58890000     -73.26490000
S      -46.85160000     -33.23960000     -74.72890000
H      -46.35590000     -35.63850000     -74.54970000
