40
Properties=species:S:1:pos:R:3 #=T CELL(abcABC):=T 1.889726e+02=T 90.00000=T Traj:=T positionsangstrom=T Step:=T 0=T Bead:=T pbc="F F F"
C      -46.38250000     -35.84870000     -68.81490000
C      -46.69190000     -34.97260000     -69.91530000
C      -46.39710000     -33.63590000     -69.72650000
C      -45.91280000     -33.14140000     -68.52160000
C      -45.76480000     -34.00210000     -67.39510000
C      -46.06040000     -35.37380000     -67.51140000
H      -46.48300000     -36.93270000     -68.95970000
H      -46.44570000     -32.97940000     -70.58120000
H      -45.30630000     -33.64510000     -66.46580000
H      -45.73710000     -35.87310000     -66.62560000
C      -45.44500000     -31.75530000     -68.61770000
H      -45.72330000     -31.02710000     -67.84190000
H      -45.80760000     -31.33870000     -69.59380000
C      -47.02550000     -35.55040000     -71.22500000
H      -47.92410000     -36.24350000     -71.17460000
H      -47.31810000     -34.81670000     -71.87790000
S      -43.54540000     -31.64010000     -68.57960000
S      -45.73180000     -36.67970000     -71.95360000
C      -42.98420000     -32.72260000     -69.97910000
H      -42.06400000     -33.22480000     -69.69580000
H      -43.82010000     -33.51080000     -70.05000000
C      -44.21150000     -35.64340000     -71.76180000
H      -43.42980000     -36.29410000     -71.34500000
H      -44.53480000     -34.86840000     -70.99780000
C      -43.75780000     -35.01460000     -73.06940000
H      -42.75250000     -34.48590000     -72.98620000
H      -43.69780000     -35.70840000     -73.94660000
C      -42.75680000     -32.03170000     -71.37170000
H      -42.13330000     -32.68780000     -72.04370000
H      -42.27220000     -31.04210000     -71.24360000
C      -44.01960000     -31.74810000     -72.15590000
C      -44.67460000     -30.57510000     -71.98210000
C      -44.78290000     -32.61150000     -73.08010000
H      -44.40410000     -29.82410000     -71.21600000
C      -45.91170000     -31.98240000     -73.60350000
C      -44.72350000     -34.00330000     -73.56090000
C      -45.80650000     -34.34270000     -74.34020000
S      -46.19460000     -30.41560000     -72.93800000
S      -46.89550000     -32.97970000     -74.62680000
H      -45.89790000     -35.31380000     -74.83610000
