40
Properties=species:S:1:pos:R:3 #=T CELL(abcABC):=T 1.889726e+02=T 90.00000=T Traj:=T positionsangstrom=T Step:=T 0=T Bead:=T pbc="F F F"
C      -46.54040000     -35.95230000     -68.91340000
C      -46.63770000     -35.11720000     -70.04090000
C      -46.29410000     -33.78230000     -69.90930000
C      -45.73550000     -33.32690000     -68.70120000
C      -45.60590000     -34.16870000     -67.61380000
C      -45.95280000     -35.50750000     -67.73250000
H      -46.97480000     -36.97540000     -69.10230000
H      -46.30800000     -33.07380000     -70.74960000
H      -45.38520000     -33.78500000     -66.53680000
H      -45.73370000     -36.10130000     -66.88160000
C      -45.43270000     -31.83730000     -68.47840000
H      -45.78960000     -31.45520000     -67.54620000
H      -46.01160000     -31.31850000     -69.22490000
C      -47.10600000     -35.72540000     -71.41750000
H      -47.84740000     -36.47360000     -71.14140000
H      -47.47030000     -34.94220000     -72.14480000
S      -43.67650000     -31.39110000     -68.63390000
S      -45.64620000     -36.75500000     -72.09990000
C      -43.00100000     -32.60570000     -69.86450000
H      -42.02680000     -32.86980000     -69.56380000
H      -43.66550000     -33.45490000     -69.73400000
C      -44.04970000     -35.80550000     -71.87020000
H      -43.26500000     -36.49700000     -71.63710000
H      -44.10000000     -35.19190000     -70.98190000
C      -43.64580000     -34.88650000     -73.13800000
H      -42.74340000     -34.37220000     -72.99690000
H      -43.43940000     -35.65630000     -73.85350000
C      -42.86520000     -32.04710000     -71.29840000
H      -42.33850000     -32.79980000     -71.85870000
H      -42.14570000     -31.23910000     -71.22540000
C      -44.16630000     -31.73470000     -71.97430000
C      -44.70140000     -30.45980000     -71.94760000
C      -44.88790000     -32.56770000     -72.89620000
H      -44.31410000     -29.61570000     -71.36480000
C      -46.04750000     -31.93240000     -73.36060000
C      -44.70980000     -33.87750000     -73.45300000
C      -45.76760000     -34.30530000     -74.25230000
S      -46.16710000     -30.25950000     -72.86930000
S      -46.94890000     -33.01540000     -74.40920000
H      -45.85190000     -35.19520000     -74.92510000
