40
Properties=species:S:1:pos:R:3 #=T CELL(abcABC):=T 1.889726e+02=T 90.00000=T Traj:=T positionsangstrom=T Step:=T 0=T Bead:=T pbc="F F F"
C      -42.42080000     -35.17560000     -73.67010000
C      -42.15200000     -34.00580000     -72.89850000
C      -42.85240000     -32.82760000     -73.12850000
C      -43.70160000     -32.82130000     -74.22910000
C      -43.95040000     -33.94660000     -75.01670000
C      -43.31230000     -35.13330000     -74.74340000
H      -42.09870000     -36.08190000     -73.23550000
H      -42.67680000     -31.83340000     -72.69600000
H      -44.86440000     -33.93640000     -75.67800000
H      -43.65340000     -36.09530000     -75.20380000
C      -44.34140000     -31.48050000     -74.59350000
H      -44.07520000     -31.07710000     -75.54640000
H      -44.01790000     -30.69190000     -73.91080000
C      -41.26590000     -34.14370000     -71.63710000
H      -40.24700000     -34.44810000     -71.87440000
H      -41.19010000     -33.20600000     -71.10590000
S      -46.24430000     -31.69980000     -74.64320000
S      -42.06600000     -35.25580000     -70.30820000
C      -46.51840000     -32.61230000     -73.06690000
H      -47.60490000     -32.89520000     -73.08540000
H      -45.97080000     -33.57330000     -73.10520000
C      -43.49010000     -34.23040000     -69.79770000
H      -43.36000000     -33.16390000     -70.14550000
H      -43.66540000     -34.17840000     -68.77030000
C      -44.86480000     -34.64520000     -70.59100000
H      -45.01060000     -34.10690000     -71.53170000
H      -44.84180000     -35.65540000     -70.71230000
C      -46.21140000     -31.81040000     -71.82940000
H      -46.15130000     -30.77740000     -72.09580000
H      -45.10330000     -31.97340000     -71.60700000
C      -47.05050000     -32.02050000     -70.63990000
C      -48.00520000     -31.17500000     -70.13820000
C      -46.94480000     -33.17980000     -69.74640000
H      -48.24840000     -30.22840000     -70.51420000
C      -47.83130000     -33.10700000     -68.65090000
C      -46.12160000     -34.39020000     -69.70520000
C      -46.48420000     -35.25120000     -68.69040000
S      -48.83610000     -31.76260000     -68.70490000
S      -47.60860000     -34.42600000     -67.52540000
H      -46.00420000     -36.16820000     -68.35700000
