40
Properties=species:S:1:pos:R:3 #=T CELL(abcABC):=T 1.889726e+02=T 90.00000=T Traj:=T positionsangstrom=T Step:=T 0=T Bead:=T pbc="F F F"
C      -42.06380000     -35.30150000     -73.71240000
C      -42.17540000     -34.24220000     -72.81540000
C      -43.02800000     -33.17260000     -73.10190000
C      -43.64200000     -33.12700000     -74.33520000
C      -43.65250000     -34.23060000     -75.17820000
C      -42.81530000     -35.26210000     -74.89020000
H      -41.30030000     -36.02410000     -73.43780000
H      -43.09050000     -32.35440000     -72.36670000
H      -44.12390000     -34.24320000     -76.08300000
H      -42.61740000     -36.03470000     -75.57730000
C      -44.41460000     -31.85980000     -74.68520000
H      -44.15950000     -31.53010000     -75.70060000
H      -44.16880000     -30.95550000     -74.03490000
C      -41.32110000     -34.23330000     -71.53010000
H      -40.35230000     -34.76460000     -71.61160000
H      -41.05590000     -33.18070000     -71.34410000
S      -46.28050000     -31.93040000     -74.59220000
S      -42.04360000     -34.92060000     -70.03650000
C      -46.65180000     -32.73870000     -73.01600000
H      -47.70100000     -32.91970000     -72.94410000
H      -46.16330000     -33.67650000     -72.95550000
C      -43.61210000     -34.08500000     -69.73330000
H      -43.58720000     -32.99140000     -70.00030000
H      -43.79170000     -34.05350000     -68.67370000
C      -44.91540000     -34.69500000     -70.39520000
H      -45.09530000     -34.11770000     -71.36250000
H      -44.92090000     -35.80060000     -70.54840000
C      -46.09140000     -31.86730000     -71.89540000
H      -46.03670000     -30.77980000     -72.08190000
H      -44.99810000     -32.12440000     -71.62730000
C      -46.94740000     -32.04720000     -70.70380000
C      -47.92340000     -31.13000000     -70.37260000
C      -46.97110000     -33.17650000     -69.80750000
H      -48.15870000     -30.11820000     -70.74340000
C      -47.95260000     -32.99910000     -68.82300000
C      -46.14300000     -34.28880000     -69.48720000
C      -46.51880000     -34.95270000     -68.37210000
S      -48.79840000     -31.46630000     -68.94620000
S      -47.93060000     -34.23490000     -67.57440000
H      -46.07750000     -35.94230000     -68.13900000
