40
Properties=species:S:1:pos:R:3 #=T CELL(abcABC):=T 1.889726e+02=T 90.00000=T Traj:=T positionsangstrom=T Step:=T 0=T Bead:=T pbc="F F F"
C      -42.28370000     -35.20620000     -73.31580000
C      -42.19330000     -34.00700000     -72.66500000
C      -42.84990000     -32.90530000     -73.22770000
C      -43.45860000     -32.97570000     -74.45560000
C      -43.54840000     -34.22470000     -75.07740000
C      -43.03120000     -35.35920000     -74.48600000
H      -41.68190000     -36.03250000     -72.98490000
H      -42.80750000     -31.94240000     -72.69880000
H      -44.07800000     -34.38130000     -76.08390000
H      -43.04110000     -36.27130000     -75.01130000
C      -44.37370000     -31.86760000     -74.94450000
H      -44.33140000     -31.79770000     -76.05880000
H      -44.00250000     -30.92700000     -74.50630000
C      -41.43720000     -33.87310000     -71.37570000
H      -40.42900000     -34.14210000     -71.64610000
H      -41.42930000     -32.86820000     -70.94680000
S      -46.18150000     -32.36290000     -74.79110000
S      -42.02570000     -35.06140000     -70.14980000
C      -46.58850000     -32.80050000     -72.98500000
H      -47.70350000     -32.88910000     -72.99260000
H      -46.18160000     -33.80490000     -72.92540000
C      -43.58580000     -34.23750000     -69.53670000
H      -43.46680000     -33.15480000     -69.69730000
H      -43.68190000     -34.46020000     -68.44930000
C      -44.87540000     -34.73840000     -70.26760000
H      -44.97530000     -34.39050000     -71.31080000
H      -44.81880000     -35.85180000     -70.37440000
C      -46.17600000     -31.74230000     -71.96020000
H      -46.41160000     -30.71360000     -72.38170000
H      -45.07000000     -31.79650000     -71.83410000
C      -46.95290000     -31.99740000     -70.69560000
C      -47.93150000     -31.10230000     -70.35160000
C      -46.80490000     -33.00520000     -69.68610000
H      -48.31250000     -30.25460000     -70.90770000
C      -47.84470000     -32.86320000     -68.74980000
C      -46.09220000     -34.26080000     -69.45340000
C      -46.64750000     -34.96370000     -68.42710000
S      -48.91200000     -31.47920000     -69.02920000
S      -47.95590000     -34.12990000     -67.64170000
H      -46.23540000     -35.86590000     -67.93320000
