40
Properties=species:S:1:pos:R:3 #=T CELL(abcABC):=T 1.889726e+02=T 90.00000=T Traj:=T positionsangstrom=T Step:=T 0=T Bead:=T pbc="F F F"
C      -46.93700000     -34.76800000     -74.19100000
C      -45.53440000     -34.88040000     -74.40040000
C      -44.80970000     -35.92060000     -73.84060000
C      -45.41150000     -36.77940000     -72.87250000
C      -46.80270000     -36.53670000     -72.57030000
C      -47.52380000     -35.50800000     -73.17900000
H      -47.40920000     -33.93040000     -74.74990000
H      -43.72390000     -35.96850000     -73.84300000
H      -47.33960000     -37.08580000     -71.85960000
H      -48.55590000     -35.42950000     -73.03660000
C      -44.51850000     -37.55430000     -71.96900000
H      -43.72200000     -38.03480000     -72.59820000
H      -45.07040000     -38.31410000     -71.36690000
C      -44.81460000     -33.88300000     -75.31170000
H      -44.21690000     -34.37900000     -76.08670000
H      -45.63900000     -33.33030000     -75.75530000
S      -43.55240000     -36.32290000     -70.79880000
S      -43.77430000     -32.58480000     -74.57970000
C      -44.79230000     -35.23470000     -70.10200000
H      -45.28160000     -34.77750000     -71.01870000
H      -45.72360000     -35.65700000     -69.60040000
C      -44.83800000     -31.70930000     -73.37410000
H      -45.89100000     -31.71340000     -73.66820000
H      -44.41740000     -30.66060000     -73.33320000
C      -44.71960000     -32.28570000     -71.95520000
H      -45.18790000     -33.23070000     -71.95950000
H      -43.70780000     -32.46580000     -71.72290000
C      -44.07290000     -34.06700000     -69.33190000
H      -43.28540000     -33.59420000     -69.96350000
H      -43.55970000     -34.49390000     -68.54680000
C      -45.07520000     -32.98980000     -68.83670000
C      -45.37430000     -32.92760000     -67.49990000
C      -45.52570000     -31.83580000     -69.58320000
H      -44.99720000     -33.48240000     -66.63520000
C      -46.09900000     -30.86820000     -68.79030000
C      -45.38100000     -31.42410000     -70.91100000
C      -45.84950000     -30.14140000     -71.17130000
S      -46.26760000     -31.40900000     -67.16430000
S      -46.72830000     -29.56430000     -69.75900000
H      -46.22660000     -29.68150000     -72.15000000
