40
Properties=species:S:1:pos:R:3 #=T CELL(abcABC):=T 1.889726e+02=T 90.00000=T Traj:=T positionsangstrom=T Step:=T 0=T Bead:=T pbc="F F F"
C      -42.10050000     -35.11170000     -73.16430000
C      -42.24060000     -33.94780000     -72.47650000
C      -42.98900000     -32.92990000     -73.12360000
C      -43.62390000     -33.16510000     -74.34920000
C      -43.51050000     -34.42830000     -74.94160000
C      -42.71570000     -35.40200000     -74.39910000
H      -41.48740000     -35.89650000     -72.72000000
H      -43.05180000     -31.86490000     -72.80660000
H      -43.98060000     -34.58490000     -75.88780000
H      -42.61830000     -36.45110000     -74.80550000
C      -44.33460000     -32.06460000     -75.06470000
H      -44.29440000     -32.09630000     -76.18480000
H      -44.00650000     -31.12780000     -74.67890000
C      -41.58150000     -33.75620000     -71.10330000
H      -40.51550000     -33.95340000     -71.19610000
H      -41.75300000     -32.83180000     -70.68620000
S      -46.18790000     -32.19200000     -74.90760000
S      -42.02330000     -35.08030000     -69.89940000
C      -46.42760000     -32.92430000     -73.20020000
H      -47.46180000     -33.26660000     -73.01570000
H      -45.86760000     -33.78250000     -72.91740000
C      -43.66480000     -34.46670000     -69.21660000
H      -43.48360000     -33.44720000     -69.01080000
H      -43.80910000     -34.97050000     -68.27690000
C      -44.82600000     -34.62680000     -70.17020000
H      -44.66690000     -34.12480000     -71.10550000
H      -44.88070000     -35.67920000     -70.40160000
C      -46.11380000     -31.82020000     -72.05820000
H      -46.27600000     -30.79120000     -72.52610000
H      -45.06730000     -31.88860000     -71.67400000
C      -46.96760000     -31.96580000     -70.84590000
C      -47.94880000     -31.08080000     -70.56950000
C      -46.92560000     -33.00770000     -69.83420000
H      -48.08060000     -30.20980000     -71.14480000
C      -47.91800000     -32.82840000     -68.85340000
C      -46.13560000     -34.19130000     -69.56540000
C      -46.67170000     -34.94840000     -68.54870000
S      -48.87470000     -31.39530000     -69.20530000
S      -48.00850000     -34.12130000     -67.71180000
H      -46.49530000     -35.97660000     -68.23660000
