40
Properties=species:S:1:pos:R:3 #=T CELL(abcABC):=T 1.889726e+02=T 90.00000=T Traj:=T positionsangstrom=T Step:=T 0=T Bead:=T pbc="F F F"
C      -45.28300000     -35.06170000     -73.19840000
C      -46.42330000     -35.19470000     -72.41170000
C      -47.31260000     -34.14580000     -72.29180000
C      -47.08350000     -32.97900000     -73.03840000
C      -45.95580000     -32.85460000     -73.86570000
C      -45.00010000     -33.90950000     -73.83010000
H      -44.59710000     -35.87180000     -73.28390000
H      -48.06540000     -34.20000000     -71.49250000
H      -45.84720000     -32.00870000     -74.39800000
H      -44.09880000     -33.77340000     -74.44200000
C      -48.18080000     -31.89030000     -72.91320000
H      -48.97780000     -32.25980000     -72.39360000
H      -48.59990000     -31.79890000     -73.96160000
C      -46.73560000     -36.43850000     -71.71090000
H      -47.86610000     -36.39670000     -71.57320000
H      -46.41640000     -37.37680000     -72.24910000
S      -47.68280000     -30.28470000     -72.27840000
S      -46.00430000     -36.92300000     -70.06030000
C      -47.31680000     -30.55260000     -70.39170000
H      -46.81430000     -29.57520000     -70.16050000
H      -48.26360000     -30.61630000     -69.77490000
C      -46.47180000     -35.46280000     -69.06950000
H      -47.05080000     -35.84600000     -68.20080000
H      -47.21120000     -34.95050000     -69.66160000
C      -45.30410000     -34.56650000     -68.59930000
H      -45.91230000     -33.85010000     -68.00330000
H      -44.71570000     -35.12750000     -67.83920000
C      -46.39990000     -31.72700000     -70.03030000
H      -46.96330000     -32.68110000     -70.15750000
H      -46.29900000     -31.64540000     -68.91260000
C      -44.98650000     -31.76300000     -70.59600000
C      -44.34350000     -30.81830000     -71.39210000
C      -44.08650000     -32.88580000     -70.33890000
H      -44.72470000     -29.94470000     -71.75750000
C      -42.89230000     -32.86920000     -71.07370000
C      -44.24740000     -34.08690000     -69.54380000
C      -43.10120000     -34.91630000     -69.68240000
S      -42.86060000     -31.45090000     -72.01540000
S      -41.95550000     -34.30370000     -70.79930000
H      -43.12950000     -35.97570000     -69.36680000
