40
Properties=species:S:1:pos:R:3 #=T CELL(abcABC):=T 1.889726e+02=T 90.00000=T Traj:=T positionsangstrom=T Step:=T 0=T Bead:=T pbc="F F F"
C      -45.55670000     -35.25420000     -73.10410000
C      -46.72670000     -35.31910000     -72.30650000
C      -47.44410000     -34.10220000     -72.12050000
C      -46.97860000     -32.90640000     -72.73330000
C      -45.87420000     -32.95260000     -73.57980000
C      -45.12650000     -34.09660000     -73.78370000
H      -44.94980000     -36.19450000     -73.20360000
H      -48.24720000     -34.11980000     -71.41300000
H      -45.49870000     -32.05380000     -74.07450000
H      -44.13280000     -34.09120000     -74.26480000
C      -47.88130000     -31.66430000     -72.52410000
H      -48.43650000     -31.89740000     -71.65450000
H      -48.53820000     -31.61120000     -73.44660000
C      -47.18990000     -36.51290000     -71.59220000
H      -48.24380000     -36.54200000     -71.49810000
H      -46.79190000     -37.39570000     -72.08140000
S      -47.02520000     -30.00920000     -72.24450000
S      -46.53840000     -36.73410000     -69.88140000
C      -46.57710000     -29.93810000     -70.44340000
H      -45.75460000     -29.14530000     -70.39810000
H      -47.52400000     -29.61050000     -69.96380000
C      -46.77550000     -35.13850000     -69.00870000
H      -47.38460000     -35.28740000     -68.12080000
H      -47.38640000     -34.56730000     -69.66780000
C      -45.49640000     -34.41450000     -68.66770000
H      -45.67390000     -33.44690000     -68.17020000
H      -44.99000000     -34.96170000     -67.88320000
C      -45.96330000     -31.21100000     -69.87700000
H      -46.70280000     -31.97030000     -69.71770000
H      -45.59250000     -30.83380000     -68.87530000
C      -44.70720000     -31.70500000     -70.57150000
C      -43.93740000     -30.86950000     -71.38200000
C      -44.10900000     -32.99560000     -70.44740000
H      -44.24760000     -29.85440000     -71.74510000
C      -43.00060000     -33.13840000     -71.26440000
C      -44.42910000     -34.25790000     -69.75070000
C      -43.49530000     -35.23170000     -69.97740000
S      -42.60590000     -31.73620000     -72.17530000
S      -42.34030000     -34.76530000     -71.22660000
H      -43.52860000     -36.26480000     -69.59150000
