40
Properties=species:S:1:pos:R:3 #=T CELL(abcABC):=T 1.889726e+02=T 90.00000=T Traj:=T positionsangstrom=T Step:=T 0=T Bead:=T pbc="F F F"
C      -45.77970000     -35.25350000     -73.13010000
C      -46.78960000     -35.12880000     -72.15750000
C      -47.42610000     -33.89670000     -72.03070000
C      -47.00220000     -32.78360000     -72.77830000
C      -45.95120000     -32.86560000     -73.67790000
C      -45.30710000     -34.11200000     -73.80510000
H      -45.24010000     -36.18730000     -73.23210000
H      -48.26570000     -33.78370000     -71.32970000
H      -45.67190000     -32.11310000     -74.35320000
H      -44.64830000     -34.29120000     -74.68130000
C      -47.86180000     -31.51730000     -72.68550000
H      -48.67770000     -31.53160000     -72.00110000
H      -48.39460000     -31.27480000     -73.65280000
C      -47.23940000     -36.38050000     -71.47050000
H      -48.35960000     -36.30480000     -71.43310000
H      -46.94810000     -37.26190000     -72.09250000
S      -46.95140000     -29.95120000     -72.25480000
S      -46.67400000     -36.63520000     -69.66670000
C      -46.55380000     -30.00990000     -70.37280000
H      -45.94450000     -29.16190000     -70.18280000
H      -47.45240000     -29.88640000     -69.87290000
C      -46.67680000     -34.94710000     -68.92300000
H      -47.27800000     -34.94230000     -67.98790000
H      -47.26290000     -34.22600000     -69.58020000
C      -45.31410000     -34.44720000     -68.55850000
H      -45.49480000     -33.54260000     -67.92500000
H      -44.88220000     -35.23320000     -67.93440000
C      -45.96630000     -31.39980000     -69.96070000
H      -46.72600000     -32.14970000     -70.14450000
H      -45.85310000     -31.49300000     -68.83250000
C      -44.65720000     -31.81210000     -70.64950000
C      -43.88760000     -31.00550000     -71.48640000
C      -44.03470000     -33.09730000     -70.49690000
H      -43.88000000     -29.90890000     -71.49220000
C      -42.92940000     -33.22300000     -71.32100000
C      -44.33520000     -34.28960000     -69.74940000
C      -43.52820000     -35.29080000     -70.12550000
S      -42.45300000     -31.81360000     -72.14980000
S      -42.41670000     -34.94940000     -71.34850000
H      -43.44890000     -36.18760000     -69.55390000
