40
Properties=species:S:1:pos:R:3 #=T CELL(abcABC):=T 1.889726e+02=T 90.00000=T Traj:=T positionsangstrom=T Step:=T 0=T Bead:=T pbc="F F F"
C      -45.78020000     -35.15260000     -72.92050000
C      -46.95610000     -35.04490000     -72.15000000
C      -47.61210000     -33.81800000     -72.07300000
C      -47.18130000     -32.68880000     -72.79540000
C      -46.06350000     -32.80910000     -73.62530000
C      -45.40320000     -34.01820000     -73.71320000
H      -45.26390000     -36.08690000     -73.06580000
H      -48.57230000     -33.75980000     -71.53270000
H      -45.63410000     -31.94910000     -74.08240000
H      -44.45190000     -34.14280000     -74.16220000
C      -47.94490000     -31.36730000     -72.59860000
H      -48.62830000     -31.40190000     -71.72660000
H      -48.44140000     -31.18940000     -73.48440000
C      -47.45590000     -36.23100000     -71.32780000
H      -48.50770000     -36.24710000     -71.22300000
H      -47.21150000     -37.16010000     -71.82200000
S      -46.74940000     -29.98630000     -72.34300000
S      -46.68000000     -36.49410000     -69.66060000
C      -46.60340000     -30.13960000     -70.49200000
H      -46.21250000     -29.14380000     -70.04700000
H      -47.63960000     -30.15410000     -69.98280000
C      -46.70520000     -34.81490000     -68.83390000
H      -47.21120000     -34.90140000     -67.90100000
H      -47.30920000     -34.18140000     -69.48580000
C      -45.31630000     -34.28680000     -68.57890000
H      -45.28240000     -33.28940000     -68.20170000
H      -44.91640000     -34.95530000     -67.78870000
C      -45.73830000     -31.40210000     -69.84370000
H      -46.46820000     -32.24210000     -69.94990000
H      -45.66130000     -31.23990000     -68.80770000
C      -44.46730000     -31.80210000     -70.53080000
C      -43.80770000     -31.10510000     -71.50260000
C      -43.98240000     -33.18130000     -70.55810000
H      -43.76990000     -30.05150000     -71.72690000
C      -42.92320000     -33.37000000     -71.42110000
C      -44.23760000     -34.33360000     -69.71350000
C      -43.60420000     -35.45680000     -70.08390000
S      -42.49020000     -32.00200000     -72.34400000
S      -42.35620000     -35.06120000     -71.35530000
H      -43.76560000     -36.41620000     -69.64090000
