40
Properties=species:S:1:pos:R:3 #=T CELL(abcABC):=T 1.889726e+02=T 90.00000=T Traj:=T positionsangstrom=T Step:=T 0=T Bead:=T pbc="F F F"
C      -42.37120000     -35.55070000     -72.72120000
C      -42.13850000     -34.34210000     -72.03260000
C      -42.59960000     -33.12870000     -72.64720000
C      -43.20300000     -33.10480000     -73.90190000
C      -43.43480000     -34.29350000     -74.57640000
C      -43.03110000     -35.47470000     -73.96270000
H      -41.94540000     -36.44790000     -72.33310000
H      -42.53450000     -32.25980000     -72.09480000
H      -43.98590000     -34.40220000     -75.48320000
H      -43.20700000     -36.40640000     -74.48990000
C      -43.55670000     -31.75510000     -74.46420000
H      -42.90380000     -31.56510000     -75.29800000
H      -43.49450000     -30.86880000     -73.77550000
C      -41.51900000     -34.23240000     -70.68330000
H      -40.45620000     -34.41900000     -70.66650000
H      -41.62010000     -33.15200000     -70.35430000
S      -45.39190000     -31.52390000     -74.95590000
S      -42.30330000     -35.38020000     -69.49030000
C      -46.24680000     -32.13550000     -73.42780000
H      -47.29060000     -31.78410000     -73.50890000
H      -46.37060000     -33.22020000     -73.53100000
C      -43.82780000     -34.48810000     -68.97250000
H      -43.61020000     -33.49750000     -68.49340000
H      -44.13660000     -35.08790000     -68.14340000
C      -44.90700000     -34.51370000     -70.09440000
H      -44.48090000     -33.87200000     -70.86720000
H      -44.96080000     -35.61520000     -70.34140000
C      -45.73320000     -31.82360000     -72.05570000
H      -45.44500000     -30.73880000     -72.10190000
H      -44.86440000     -32.42280000     -71.79440000
C      -46.86930000     -32.00440000     -71.05500000
C      -47.91730000     -31.13610000     -71.07580000
C      -47.07800000     -33.11590000     -70.11130000
H      -47.94690000     -30.20890000     -71.69840000
C      -48.26830000     -32.94490000     -69.42310000
C      -46.26860000     -34.20340000     -69.60480000
C      -46.94340000     -34.86530000     -68.60410000
S      -49.23600000     -31.56890000     -69.96260000
S      -48.52050000     -34.19310000     -68.22800000
H      -46.49840000     -35.55040000     -67.93530000
