40
Properties=species:S:1:pos:R:3 #=T CELL(abcABC):=T 1.889726e+02=T 90.00000=T Traj:=T positionsangstrom=T Step:=T 0=T Bead:=T pbc="F F F"
C      -46.38400000     -35.26490000     -72.72270000
C      -47.38390000     -34.91900000     -71.80500000
C      -47.81320000     -33.57400000     -71.76380000
C      -47.24270000     -32.58490000     -72.57310000
C      -46.19100000     -32.95740000     -73.45200000
C      -45.76870000     -34.32940000     -73.49050000
H      -46.01200000     -36.31190000     -72.77240000
H      -48.51010000     -33.23530000     -71.06370000
H      -45.79010000     -32.22660000     -74.19640000
H      -44.91400000     -34.61580000     -74.18370000
C      -47.83990000     -31.19850000     -72.61260000
H      -48.58540000     -31.12200000     -71.83140000
H      -48.28610000     -31.05630000     -73.61160000
C      -48.02520000     -36.00940000     -70.96560000
H      -49.00300000     -35.88450000     -70.64090000
H      -47.92510000     -36.89750000     -71.52780000
S      -46.52840000     -29.85400000     -72.37050000
S      -46.90860000     -36.35280000     -69.56150000
C      -45.93590000     -29.84700000     -70.65790000
H      -45.05740000     -29.08630000     -70.79230000
H      -46.64540000     -29.25160000     -69.98420000
C      -46.68970000     -34.55570000     -68.81640000
H      -47.24970000     -34.37010000     -67.87000000
H      -47.08930000     -33.83060000     -69.55020000
C      -45.18070000     -34.27200000     -68.52730000
H      -45.11690000     -33.22210000     -68.14040000
H      -44.83510000     -34.91350000     -67.70420000
C      -45.51390000     -31.22410000     -70.10970000
H      -46.35560000     -31.88810000     -70.03900000
H      -45.17410000     -31.16250000     -69.06310000
C      -44.37230000     -31.92310000     -70.92770000
C      -43.70650000     -31.31060000     -71.94080000
C      -43.86920000     -33.29320000     -70.69970000
H      -43.87460000     -30.36210000     -72.26470000
C      -42.84340000     -33.64070000     -71.53310000
C      -44.26770000     -34.32330000     -69.76160000
C      -43.35870000     -35.29560000     -69.88390000
S      -42.42350000     -32.38210000     -72.71050000
S      -42.22320000     -35.23150000     -71.25990000
H      -43.43810000     -36.22880000     -69.22820000
