40
Properties=species:S:1:pos:R:3 #=T CELL(abcABC):=T 1.889726e+02=T 90.00000=T Traj:=T positionsangstrom=T Step:=T 0=T Bead:=T pbc="F F F"
C      -41.87950000     -35.09150000     -73.38450000
C      -41.98060000     -34.12850000     -72.38940000
C      -42.63270000     -32.89680000     -72.64460000
C      -43.20760000     -32.59790000     -73.93920000
C      -42.97600000     -33.58870000     -74.92620000
C      -42.34990000     -34.82750000     -74.66180000
H      -41.51120000     -36.10730000     -73.25340000
H      -42.60470000     -32.15340000     -71.89590000
H      -43.32290000     -33.37650000     -75.95820000
H      -42.13130000     -35.53160000     -75.58390000
C      -43.73930000     -31.31780000     -74.22840000
H      -43.37980000     -30.95660000     -75.21280000
H      -43.38740000     -30.63230000     -73.50220000
C      -41.29340000     -34.30280000     -71.08360000
H      -40.33870000     -34.83960000     -71.27230000
H      -41.17790000     -33.31470000     -70.60990000
S      -45.58130000     -31.28900000     -74.32350000
S      -42.22920000     -35.28060000     -69.83030000
C      -46.19750000     -32.33040000     -72.98070000
H      -47.30960000     -32.47310000     -73.29230000
H      -45.77340000     -33.35340000     -73.00940000
C      -43.84780000     -34.51790000     -69.44910000
H      -43.55130000     -33.47550000     -69.26680000
H      -44.08650000     -34.87920000     -68.46460000
C      -44.96050000     -34.62820000     -70.45080000
H      -44.63610000     -34.00550000     -71.30120000
H      -44.90280000     -35.67870000     -70.85880000
C      -46.02120000     -31.63460000     -71.63250000
H      -46.10580000     -30.59370000     -71.83370000
H      -45.03180000     -31.82790000     -71.17500000
C      -47.12840000     -31.99330000     -70.66740000
C      -48.17570000     -31.17000000     -70.41890000
C      -47.23030000     -33.24070000     -69.98220000
H      -48.36350000     -30.11320000     -70.74070000
C      -48.36020000     -33.36500000     -69.24040000
C      -46.41360000     -34.41530000     -69.85990000
C      -47.02000000     -35.37650000     -69.12820000
S      -49.38070000     -31.90240000     -69.37900000
S      -48.49800000     -34.88390000     -68.38150000
H      -46.53530000     -36.39550000     -68.96240000
