40
Properties=species:S:1:pos:R:3 #=T CELL(abcABC):=T 1.889726e+02=T 90.00000=T Traj:=T positionsangstrom=T Step:=T 0=T Bead:=T pbc="F F F"
C      -41.76840000     -34.96440000     -73.59620000
C      -41.84160000     -34.10480000     -72.53670000
C      -42.46380000     -32.87240000     -72.65180000
C      -43.17250000     -32.53650000     -73.86060000
C      -43.02770000     -33.39500000     -74.94750000
C      -42.35040000     -34.64260000     -74.74740000
H      -41.18140000     -35.87510000     -73.51950000
H      -42.63730000     -32.22160000     -71.78510000
H      -43.63350000     -33.20970000     -75.85550000
H      -42.26450000     -35.27960000     -75.65670000
C      -43.83830000     -31.15470000     -73.99410000
H      -43.36620000     -30.68170000     -74.87410000
H      -43.71810000     -30.61500000     -73.08110000
C      -41.28380000     -34.41450000     -71.11360000
H      -40.28580000     -34.89950000     -71.13390000
H      -41.00140000     -33.52810000     -70.58070000
S      -45.55980000     -31.27380000     -74.47500000
S      -42.30800000     -35.43580000     -70.02320000
C      -46.20510000     -32.20550000     -72.96730000
H      -47.23560000     -32.44650000     -73.16670000
H      -45.58330000     -33.05460000     -72.80920000
C      -43.75610000     -34.33240000     -69.56910000
H      -43.44870000     -33.33940000     -69.79740000
H      -44.03260000     -34.51690000     -68.45430000
C      -44.98710000     -34.64180000     -70.43930000
H      -44.88650000     -34.19700000     -71.51440000
H      -44.92280000     -35.66690000     -70.58190000
C      -46.14370000     -31.41320000     -71.56360000
H      -46.35390000     -30.34750000     -71.68220000
H      -45.09050000     -31.40020000     -71.33030000
C      -47.20910000     -31.96870000     -70.61540000
C      -48.35970000     -31.27480000     -70.33910000
C      -47.17820000     -33.21190000     -69.90240000
H      -48.56290000     -30.28120000     -70.87260000
C      -48.39520000     -33.49730000     -69.18450000
C      -46.30980000     -34.36220000     -69.70570000
C      -46.86610000     -35.38950000     -68.99560000
S      -49.42400000     -32.05310000     -69.18470000
S      -48.48110000     -35.03890000     -68.37300000
H      -46.35160000     -36.37690000     -69.01640000
