40
Properties=species:S:1:pos:R:3 #=T CELL(abcABC):=T 1.889726e+02=T 90.00000=T Traj:=T positionsangstrom=T Step:=T 0=T Bead:=T pbc="F F F"
C      -47.09330000     -34.70260000     -72.29670000
C      -47.87540000     -33.97040000     -71.36960000
C      -47.95670000     -32.58640000     -71.47070000
C      -47.22440000     -31.91980000     -72.45320000
C      -46.44210000     -32.65450000     -73.36710000
C      -46.47260000     -34.07470000     -73.34470000
H      -46.94910000     -35.77040000     -72.17240000
H      -48.51230000     -31.99730000     -70.71570000
H      -45.84110000     -32.14350000     -74.09480000
H      -45.88920000     -34.69640000     -74.05500000
C      -47.19030000     -30.37430000     -72.53030000
H      -47.57310000     -29.95750000     -71.62010000
H      -47.82950000     -29.92640000     -73.28670000
C      -48.58410000     -34.62440000     -70.23590000
H      -49.27940000     -33.97300000     -69.73940000
H      -49.11640000     -35.44230000     -70.68670000
S      -45.40810000     -29.69890000     -72.66550000
S      -47.35510000     -35.45310000     -69.02880000
C      -44.62490000     -29.96720000     -71.00560000
H      -43.62790000     -29.55910000     -70.89770000
H      -45.29250000     -29.42340000     -70.36570000
C      -46.42570000     -33.90720000     -68.55740000
H      -46.81520000     -33.50400000     -67.58600000
H      -46.64960000     -33.18490000     -69.30840000
C      -44.88290000     -34.04860000     -68.50410000
H      -44.42220000     -33.03890000     -68.23020000
H      -44.72270000     -34.79830000     -67.66720000
C      -44.54630000     -31.40750000     -70.45000000
H      -45.59310000     -31.73140000     -70.22120000
H      -44.11930000     -31.42400000     -69.40620000
C      -43.93570000     -32.42900000     -71.31720000
C      -43.41480000     -32.28900000     -72.52730000
C      -43.90260000     -33.82530000     -70.93410000
H      -43.38230000     -31.32120000     -73.09140000
C      -43.19350000     -34.57020000     -71.80830000
C      -44.35380000     -34.58750000     -69.72670000
C      -43.95330000     -35.90750000     -69.83240000
S      -42.47160000     -33.65710000     -73.11160000
S      -43.09850000     -36.23660000     -71.36070000
H      -44.04940000     -36.68380000     -69.01860000
