40
Properties=species:S:1:pos:R:3 #=T CELL(abcABC):=T 1.889726e+02=T 90.00000=T Traj:=T positionsangstrom=T Step:=T 0=T Bead:=T pbc="F F F"
C      -47.18530000     -29.17610000     -72.42840000
C      -46.39370000     -30.25890000     -72.89070000
C      -46.96930000     -31.49180000     -72.99750000
C      -48.32120000     -31.66140000     -72.70990000
C      -49.13560000     -30.53940000     -72.29790000
C      -48.48530000     -29.29540000     -72.11790000
H      -46.70960000     -28.20480000     -72.40070000
H      -46.39150000     -32.38480000     -73.36360000
H      -50.18080000     -30.63450000     -72.13890000
H      -49.11700000     -28.43390000     -71.83630000
C      -48.98170000     -33.01760000     -72.83070000
H      -48.50520000     -33.44180000     -73.76530000
H      -50.08320000     -32.97170000     -73.05020000
C      -45.01030000     -30.01930000     -73.39590000
H      -44.86290000     -29.88810000     -74.49260000
H      -44.50820000     -29.12810000     -72.98210000
S      -48.83700000     -34.02660000     -71.26780000
S      -43.79680000     -31.38640000     -72.98830000
C      -46.96100000     -34.64680000     -71.11410000
H      -46.87940000     -35.63150000     -71.73760000
H      -46.43330000     -33.83300000     -71.67160000
C      -43.78390000     -31.15680000     -71.08590000
H      -44.55570000     -30.48890000     -70.82220000
H      -42.72720000     -30.81050000     -70.85140000
C      -44.14230000     -32.50430000     -70.28230000
H      -44.13960000     -32.23100000     -69.22450000
H      -45.09320000     -32.72840000     -70.60040000
C      -46.48090000     -34.77460000     -69.60280000
H      -47.27830000     -35.30920000     -68.97780000
H      -46.47000000     -33.83090000     -69.05750000
C      -45.15520000     -35.57210000     -69.59710000
C      -45.03000000     -36.92140000     -69.30510000
C      -43.90740000     -35.02520000     -70.15960000
H      -45.66710000     -37.57460000     -68.69580000
C      -42.89620000     -35.99700000     -70.19690000
C      -43.38560000     -33.76990000     -70.58650000
C      -42.03170000     -33.78980000     -70.84130000
S      -43.46180000     -37.55650000     -69.64460000
S      -41.37570000     -35.41100000     -70.78620000
H      -41.45610000     -33.00870000     -71.28720000
