40
Properties=species:S:1:pos:R:3 #=T CELL(abcABC):=T 1.889726e+02=T 90.00000=T Traj:=T positionsangstrom=T Step:=T 0=T Bead:=T pbc="F F F"
C      -47.31220000     -34.56320000     -72.12710000
C      -47.86670000     -33.72490000     -71.14000000
C      -47.70980000     -32.34420000     -71.25100000
C      -47.02910000     -31.79050000     -72.36740000
C      -46.66230000     -32.62190000     -73.42830000
C      -46.75390000     -34.01170000     -73.25570000
H      -47.37690000     -35.62920000     -72.11160000
H      -48.17820000     -31.53910000     -70.65750000
H      -46.20090000     -32.15160000     -74.32280000
H      -46.34840000     -34.68160000     -74.02190000
C      -46.88790000     -30.29860000     -72.51200000
H      -47.38250000     -29.80990000     -71.63690000
H      -47.27090000     -29.93320000     -73.47420000
C      -48.63890000     -34.34770000     -69.93720000
H      -49.23980000     -33.59180000     -69.47000000
H      -49.23910000     -35.19230000     -70.25080000
S      -45.09900000     -29.76290000     -72.70980000
S      -47.34050000     -35.05440000     -68.76630000
C      -44.13660000     -30.01160000     -71.09420000
H      -43.10290000     -29.86270000     -71.32460000
H      -44.39040000     -29.20490000     -70.36260000
C      -46.15950000     -33.65200000     -68.37300000
H      -46.41240000     -33.18680000     -67.34730000
H      -46.37390000     -32.90070000     -69.10510000
C      -44.69980000     -34.23510000     -68.36770000
H      -44.09830000     -33.38920000     -68.04010000
H      -44.67110000     -35.01180000     -67.71270000
C      -44.24720000     -31.38050000     -70.44290000
H      -45.28390000     -31.54790000     -70.08400000
H      -43.55440000     -31.27740000     -69.61060000
C      -43.77070000     -32.55220000     -71.29750000
C      -43.17470000     -32.39100000     -72.54770000
C      -43.97140000     -33.96280000     -70.95830000
H      -42.80430000     -31.37990000     -72.74730000
C      -43.58040000     -34.80310000     -71.98460000
C      -44.21610000     -34.75500000     -69.75200000
C      -44.06240000     -36.06570000     -70.00900000
S      -42.97530000     -33.91160000     -73.41500000
S      -43.47430000     -36.48800000     -71.62540000
H      -44.27280000     -36.82960000     -69.30630000
