40
Properties=species:S:1:pos:R:3 #=T CELL(abcABC):=T 1.889726e+02=T 90.00000=T Traj:=T positionsangstrom=T Step:=T 0=T Bead:=T pbc="F F F"
C      -47.53100000     -34.35310000     -71.90330000
C      -47.84420000     -33.53550000     -70.83140000
C      -47.56440000     -32.15230000     -70.81980000
C      -46.95810000     -31.59930000     -71.94110000
C      -46.58530000     -32.44860000     -72.98250000
C      -46.89700000     -33.81570000     -73.02590000
H      -47.77570000     -35.44820000     -71.86810000
H      -47.87350000     -31.58190000     -69.95700000
H      -46.10400000     -31.96210000     -73.86360000
H      -46.52040000     -34.46450000     -73.80300000
C      -46.56980000     -30.15830000     -72.00910000
H      -46.57050000     -29.72990000     -71.00800000
H      -47.25700000     -29.50650000     -72.64740000
C      -48.51390000     -34.27110000     -69.67630000
H      -49.16630000     -33.59630000     -69.14310000
H      -49.08880000     -35.10000000     -69.97330000
S      -44.84970000     -29.89860000     -72.76150000
S      -47.26540000     -34.83860000     -68.45900000
C      -43.81280000     -30.07580000     -71.23050000
H      -42.87600000     -29.63610000     -71.53090000
H      -44.24390000     -29.40150000     -70.50310000
C      -45.93910000     -33.46210000     -68.38960000
H      -45.96390000     -32.95250000     -67.46580000
H      -46.22090000     -32.82770000     -69.25680000
C      -44.55020000     -34.12460000     -68.58600000
H      -43.81160000     -33.32080000     -68.25660000
H      -44.54240000     -34.97900000     -67.83130000
C      -43.94260000     -31.48380000     -70.69750000
H      -44.99470000     -31.75480000     -70.36370000
H      -43.43400000     -31.59610000     -69.73170000
C      -43.57560000     -32.67460000     -71.63260000
C      -43.20860000     -32.59160000     -72.98550000
C      -43.82010000     -34.06780000     -71.15760000
H      -43.03540000     -31.66490000     -73.60890000
C      -43.64950000     -34.96730000     -72.19630000
C      -44.25020000     -34.73160000     -69.95320000
C      -44.44820000     -36.05880000     -70.14040000
S      -43.15760000     -34.24800000     -73.76350000
S      -44.12800000     -36.60670000     -71.82870000
H      -44.96690000     -36.86330000     -69.53410000
