40
Properties=species:S:1:pos:R:3 #=T CELL(abcABC):=T 1.889726e+02=T 90.00000=T Traj:=T positionsangstrom=T Step:=T 0=T Bead:=T pbc="F F F"
C      -47.61290000     -34.17080000     -72.01670000
C      -47.78640000     -33.48120000     -70.80360000
C      -47.43250000     -32.09560000     -70.75160000
C      -46.79220000     -31.46100000     -71.83160000
C      -46.69050000     -32.15870000     -73.03400000
C      -47.03560000     -33.50060000     -73.10800000
H      -47.92000000     -35.22020000     -72.04490000
H      -47.49410000     -31.49210000     -69.88770000
H      -46.34510000     -31.72470000     -73.97310000
H      -46.86430000     -33.98910000     -74.06520000
C      -46.42240000     -29.97210000     -71.76810000
H      -46.30470000     -29.64270000     -70.74520000
H      -47.20760000     -29.36610000     -72.20390000
C      -48.37910000     -34.11660000     -69.62240000
H      -49.10610000     -33.47290000     -69.07040000
H      -48.93950000     -34.94750000     -69.94640000
S      -44.82540000     -29.76630000     -72.60730000
S      -47.15780000     -34.85200000     -68.36500000
C      -43.52640000     -30.25140000     -71.30940000
H      -42.52560000     -30.20470000     -71.77820000
H      -43.53940000     -29.57210000     -70.43900000
C      -45.79430000     -33.57680000     -68.26120000
H      -45.60220000     -33.24030000     -67.24060000
H      -46.04540000     -32.64030000     -68.81820000
C      -44.47510000     -34.15610000     -68.68670000
H      -43.66610000     -33.39590000     -68.53600000
H      -44.20450000     -35.01980000     -67.99400000
C      -43.60410000     -31.65590000     -70.73520000
H      -44.47180000     -31.81350000     -70.02070000
H      -42.86970000     -31.81120000     -69.97550000
C      -43.69050000     -32.83590000     -71.65340000
C      -43.27080000     -32.73600000     -72.94940000
C      -43.90860000     -34.20320000     -71.28120000
H      -42.93010000     -31.85920000     -73.44160000
C      -43.72990000     -35.12570000     -72.28850000
C      -44.34750000     -34.86600000     -70.04330000
C      -44.62090000     -36.20530000     -70.30850000
S      -43.39380000     -34.28930000     -73.79620000
S      -44.33110000     -36.68970000     -71.95250000
H      -45.07330000     -36.83610000     -69.57810000
