40
Properties=species:S:1:pos:R:3 #=T CELL(abcABC):=T 1.889726e+02=T 90.00000=T Traj:=T positionsangstrom=T Step:=T 0=T Bead:=T pbc="F F F"
C      -47.64840000     -33.85560000     -71.72020000
C      -47.70520000     -33.15440000     -70.53360000
C      -47.18570000     -31.87640000     -70.51710000
C      -46.74740000     -31.22930000     -71.66000000
C      -46.81300000     -31.91500000     -72.87650000
C      -47.24040000     -33.25270000     -72.93660000
H      -48.00630000     -34.85950000     -71.58050000
H      -47.32120000     -31.32030000     -69.61160000
H      -46.79450000     -31.29820000     -73.77890000
H      -47.23860000     -33.81010000     -73.86010000
C      -46.22420000     -29.80360000     -71.59260000
H      -46.22160000     -29.38550000     -70.59040000
H      -46.88260000     -29.07720000     -72.16540000
C      -48.27760000     -33.76490000     -69.25070000
H      -48.50510000     -32.93000000     -68.57740000
H      -49.15470000     -34.37030000     -69.47500000
S      -44.58440000     -29.57000000     -72.27390000
S      -47.03950000     -34.85550000     -68.40450000
C      -43.27030000     -30.50710000     -71.38950000
H      -42.40810000     -30.66210000     -72.11980000
H      -42.85540000     -29.97420000     -70.57210000
C      -45.53670000     -33.82820000     -68.27720000
H      -45.39890000     -33.53690000     -67.21040000
H      -45.65690000     -32.90070000     -68.77330000
C      -44.26600000     -34.61260000     -68.80570000
H      -43.48280000     -33.88470000     -68.68290000
H      -43.97220000     -35.32880000     -68.03080000
C      -43.60450000     -31.90340000     -70.83860000
H      -44.59210000     -31.81720000     -70.36080000
H      -42.84590000     -32.13930000     -69.98750000
C      -43.69850000     -32.99670000     -71.75860000
C      -43.39000000     -32.86470000     -73.07500000
C      -44.09570000     -34.36390000     -71.43870000
H      -43.06230000     -32.02850000     -73.56860000
C      -44.21150000     -35.18360000     -72.58830000
C      -44.32630000     -35.08710000     -70.20180000
C      -44.59670000     -36.43140000     -70.50750000
S      -43.65740000     -34.33360000     -74.03220000
S      -44.59230000     -36.80820000     -72.22650000
H      -44.80270000     -37.14200000     -69.71630000
