40
Properties=species:S:1:pos:R:3 #=T CELL(abcABC):=T 1.889726e+02=T 90.00000=T Traj:=T positionsangstrom=T Step:=T 0=T Bead:=T pbc="F F F"
C      -47.94730000     -33.76210000     -71.69420000
C      -47.81920000     -33.12130000     -70.43420000
C      -47.30190000     -31.83360000     -70.50140000
C      -46.75850000     -31.20830000     -71.62920000
C      -46.86610000     -31.84370000     -72.81300000
C      -47.38720000     -33.23350000     -72.83870000
H      -48.36760000     -34.80170000     -71.71310000
H      -47.09500000     -31.28490000     -69.58610000
H      -46.27890000     -31.48840000     -73.63030000
H      -47.42940000     -33.84980000     -73.74770000
C      -46.16420000     -29.81570000     -71.47360000
H      -45.94810000     -29.61120000     -70.39330000
H      -46.77100000     -29.08930000     -71.92480000
C      -48.20560000     -33.82780000     -69.18950000
H      -48.42080000     -33.25690000     -68.30530000
H      -49.08670000     -34.46910000     -69.29330000
S      -44.51010000     -29.63370000     -72.36070000
S      -46.84240000     -35.00510000     -68.53500000
C      -43.34210000     -30.36740000     -71.14480000
H      -42.34210000     -30.26890000     -71.61370000
H      -43.38360000     -29.76940000     -70.23120000
C      -45.47450000     -33.82760000     -68.43960000
H      -45.38720000     -33.41880000     -67.41980000
H      -45.60710000     -32.99000000     -69.12720000
C      -44.13720000     -34.57380000     -68.81570000
H      -43.24140000     -33.92500000     -68.83290000
H      -43.81380000     -35.43850000     -68.11140000
C      -43.56520000     -31.81890000     -70.77340000
H      -44.49270000     -32.00670000     -70.22510000
H      -42.85860000     -31.91600000     -69.98530000
C      -43.59260000     -32.96960000     -71.80990000
C      -43.47760000     -32.84200000     -73.15670000
C      -44.08970000     -34.35680000     -71.47970000
H      -43.15930000     -32.00200000     -73.74120000
C      -44.24610000     -35.16020000     -72.61310000
C      -44.27970000     -35.10110000     -70.23680000
C      -44.75170000     -36.37610000     -70.46520000
S      -43.58520000     -34.34930000     -74.06080000
S      -44.73920000     -36.79300000     -72.18750000
H      -45.00580000     -37.12710000     -69.67020000
