40
Properties=species:S:1:pos:R:3 #=T CELL(abcABC):=T 1.889726e+02=T 90.00000=T Traj:=T positionsangstrom=T Step:=T 0=T Bead:=T pbc="F F F"
C      -44.76920000     -34.07090000     -68.86870000
C      -45.99780000     -33.39300000     -68.89900000
C      -47.18540000     -34.05910000     -69.39780000
C      -47.13670000     -35.33480000     -69.88510000
C      -45.89650000     -36.00140000     -69.78750000
C      -44.69280000     -35.39970000     -69.29750000
H      -43.81570000     -33.53770000     -68.54760000
H      -48.04590000     -33.41630000     -69.51260000
H      -45.88140000     -37.07090000     -70.14730000
H      -43.77680000     -35.95890000     -69.39040000
C      -48.35940000     -36.07950000     -70.44920000
H      -49.18710000     -35.96900000     -69.72260000
H      -48.08280000     -37.12050000     -70.54470000
C      -46.06550000     -31.95530000     -68.30890000
H      -47.08240000     -31.61220000     -68.42920000
H      -45.93040000     -31.92220000     -67.23010000
S      -48.91690000     -35.28730000     -71.97580000
S      -44.89990000     -30.56680000     -68.86310000
C      -47.32790000     -35.34850000     -72.92770000
H      -46.64500000     -35.89450000     -72.28990000
H      -47.30860000     -35.85170000     -73.87520000
C      -45.81550000     -30.01410000     -70.41640000
H      -45.37550000     -29.13440000     -70.85000000
H      -46.81110000     -29.80870000     -70.15330000
C      -46.00800000     -31.16220000     -71.44660000
H      -46.49060000     -31.97800000     -70.93690000
H      -46.60590000     -30.77110000     -72.24960000
C      -46.74270000     -33.97950000     -73.09860000
H      -46.85800000     -33.30000000     -72.25140000
H      -47.27480000     -33.51750000     -73.92130000
C      -45.17500000     -33.93000000     -73.36270000
C      -44.39330000     -34.96200000     -73.82250000
C      -44.45010000     -32.79690000     -72.79720000
H      -44.67360000     -35.93430000     -74.13740000
C      -43.05870000     -33.07660000     -72.94070000
C      -44.65880000     -31.62070000     -71.98720000
C      -43.46480000     -30.91230000     -71.79660000
S      -42.66830000     -34.62820000     -73.69270000
S      -42.06760000     -31.77500000     -72.36920000
H      -43.26290000     -30.00970000     -71.32750000
