40
Properties=species:S:1:pos:R:3 #=T CELL(abcABC):=T 1.889726e+02=T 90.00000=T Traj:=T positionsangstrom=T Step:=T 0=T Bead:=T pbc="F F F"
C      -46.84490000     -34.63460000     -74.53210000
C      -45.44450000     -34.70800000     -74.37100000
C      -44.87570000     -35.49680000     -73.39380000
C      -45.68750000     -36.32670000     -72.61410000
C      -47.09260000     -36.17270000     -72.76570000
C      -47.65830000     -35.30370000     -73.66910000
H      -47.30360000     -33.93510000     -75.26180000
H      -43.78180000     -35.59530000     -73.44760000
H      -47.77020000     -36.75320000     -72.20430000
H      -48.75340000     -35.21620000     -73.77190000
C      -45.04640000     -37.29750000     -71.70840000
H      -44.35580000     -38.05600000     -72.20700000
H      -45.75070000     -37.86660000     -71.04480000
C      -44.66650000     -33.91160000     -75.30080000
H      -43.94320000     -34.57200000     -75.92450000
H      -45.24200000     -33.39110000     -76.10370000
S      -43.80280000     -36.39210000     -70.66180000
S      -43.52390000     -32.53720000     -74.73880000
C      -44.80480000     -35.17680000     -69.69440000
H      -45.56520000     -34.79570000     -70.31070000
H      -45.19440000     -35.66320000     -68.76240000
C      -44.53850000     -31.58970000     -73.43450000
H      -45.53490000     -31.61350000     -73.69210000
H      -44.24230000     -30.51520000     -73.49510000
C      -44.40680000     -32.27180000     -72.05940000
H      -44.67980000     -33.33760000     -72.17220000
H      -43.35520000     -32.26910000     -71.72260000
C      -43.85120000     -33.99650000     -69.19070000
H      -43.16660000     -33.70650000     -70.07670000
H      -43.06470000     -34.38980000     -68.53880000
C      -44.59810000     -32.86000000     -68.66670000
C      -44.98960000     -32.77400000     -67.39690000
C      -45.27480000     -31.87590000     -69.54250000
H      -44.57680000     -33.30950000     -66.54130000
C      -46.24140000     -31.16600000     -68.85840000
C      -45.20090000     -31.55900000     -70.96850000
C      -46.18240000     -30.66060000     -71.29730000
S      -46.25970000     -31.57170000     -67.16090000
S      -47.02790000     -29.98070000     -69.90910000
H      -46.43960000     -30.39200000     -72.31700000
