40
Properties=species:S:1:pos:R:3 #=T CELL(abcABC):=T 1.889726e+02=T 90.00000=T Traj:=T positionsangstrom=T Step:=T 0=T Bead:=T pbc="F F F"
C      -47.62320000     -30.57720000     -72.88330000
C      -47.18270000     -31.66310000     -73.69660000
C      -47.79240000     -32.90440000     -73.46860000
C      -48.59450000     -33.10500000     -72.34660000
C      -48.81630000     -32.07620000     -71.39810000
C      -48.40580000     -30.77750000     -71.75610000
H      -47.22240000     -29.59220000     -73.16470000
H      -47.50870000     -33.78330000     -74.09620000
H      -49.28090000     -32.21590000     -70.47760000
H      -48.66750000     -29.92230000     -71.16870000
C      -49.27780000     -34.43650000     -72.06880000
H      -48.88430000     -35.20820000     -72.70170000
H      -50.39300000     -34.30930000     -72.05000000
C      -46.02110000     -31.41030000     -74.60830000
H      -46.15800000     -32.05100000     -75.42780000
H      -45.97280000     -30.33920000     -74.72520000
S      -48.77530000     -35.00530000     -70.36280000
S      -44.38970000     -31.96930000     -73.80360000
C      -47.11290000     -35.70740000     -70.59470000
H      -46.88630000     -36.36150000     -69.68550000
H      -47.02600000     -36.37930000     -71.39960000
C      -44.22710000     -30.86150000     -72.35310000
H      -44.94530000     -30.07260000     -72.41200000
H      -43.25470000     -30.48510000     -72.32100000
C      -44.53720000     -31.64940000     -71.00790000
H      -44.87290000     -31.03630000     -70.18520000
H      -45.39280000     -32.25410000     -71.31260000
C      -46.06040000     -34.56640000     -70.71540000
H      -46.43580000     -33.69220000     -70.15830000
H      -46.13100000     -34.23540000     -71.74470000
C      -44.64490000     -34.94100000     -70.20920000
C      -44.17640000     -36.14400000     -69.74470000
C      -43.60490000     -33.94480000     -70.16060000
H      -44.59810000     -37.21380000     -69.69780000
C      -42.35310000     -34.47680000     -69.70520000
C      -43.40640000     -32.57600000     -70.53000000
C      -42.10260000     -32.16820000     -70.43230000
S      -42.48260000     -36.10650000     -69.20800000
S      -41.05500000     -33.35760000     -69.89410000
H      -41.82810000     -31.11460000     -70.75490000
