40
Properties=species:S:1:pos:R:3 #=T CELL(abcABC):=T 1.889726e+02=T 90.00000=T Traj:=T positionsangstrom=T Step:=T 0=T Bead:=T pbc="F F F"
C      -48.03180000     -30.58030000     -73.20480000
C      -47.16190000     -31.53060000     -73.73170000
C      -47.39820000     -32.88810000     -73.52790000
C      -48.40740000     -33.28090000     -72.65240000
C      -49.25000000     -32.29520000     -72.07840000
C      -49.05320000     -30.99380000     -72.31480000
H      -47.82720000     -29.52470000     -73.32280000
H      -46.70390000     -33.50650000     -74.09870000
H      -50.03600000     -32.58790000     -71.40600000
H      -49.73160000     -30.27240000     -71.85400000
C      -48.47930000     -34.77600000     -72.33430000
H      -47.54350000     -35.23040000     -72.63640000
H      -49.18200000     -35.39170000     -72.91320000
C      -45.99620000     -31.24310000     -74.61220000
H      -45.93430000     -31.62220000     -75.63580000
H      -45.79650000     -30.17200000     -74.75950000
S      -48.80010000     -35.16840000     -70.56560000
S      -44.45190000     -32.03280000     -73.83530000
C      -47.10960000     -35.38040000     -69.85290000
H      -47.36190000     -35.65930000     -68.73890000
H      -46.59540000     -36.24450000     -70.26180000
C      -44.19990000     -30.93760000     -72.35780000
H      -44.86270000     -30.03690000     -72.42470000
H      -43.20480000     -30.52030000     -72.42210000
C      -44.47200000     -31.54150000     -70.93380000
H      -44.44270000     -30.88300000     -70.10790000
H      -45.48130000     -32.01930000     -70.85890000
C      -46.11080000     -34.23520000     -69.98620000
H      -46.30310000     -33.40000000     -69.33440000
H      -46.17700000     -33.83280000     -70.99020000
C      -44.70390000     -34.67070000     -69.82740000
C      -44.32730000     -35.92590000     -69.30510000
C      -43.50850000     -33.87410000     -70.07810000
H      -44.95900000     -36.75360000     -69.28480000
C      -42.29590000     -34.49060000     -69.63530000
C      -43.34760000     -32.50090000     -70.55220000
C      -42.00650000     -32.15990000     -70.59700000
S      -42.57070000     -36.16190000     -69.13800000
S      -40.96380000     -33.37590000     -69.81360000
H      -41.59730000     -31.16730000     -70.91310000
