40
Properties=species:S:1:pos:R:3 #=T CELL(abcABC):=T 1.889726e+02=T 90.00000=T Traj:=T positionsangstrom=T Step:=T 0=T Bead:=T pbc="F F F"
C      -46.99610000     -34.56750000     -74.43320000
C      -45.58780000     -34.64910000     -74.45990000
C      -44.95950000     -35.51370000     -73.53000000
C      -45.72700000     -36.32140000     -72.68530000
C      -47.13810000     -36.27310000     -72.79730000
C      -47.76540000     -35.37530000     -73.59620000
H      -47.43220000     -33.90470000     -75.18580000
H      -43.94470000     -35.38870000     -73.28090000
H      -47.80220000     -36.85270000     -72.20860000
H      -48.80560000     -35.17990000     -73.44860000
C      -45.13660000     -37.23060000     -71.56440000
H      -44.85040000     -38.13880000     -72.03870000
H      -45.92690000     -37.49120000     -70.93560000
C      -44.69230000     -33.72980000     -75.33150000
H      -44.16720000     -34.48500000     -75.87010000
H      -45.25580000     -33.17820000     -75.99710000
S      -43.73850000     -36.57170000     -70.59660000
S      -43.34010000     -32.67260000     -74.52990000
C      -44.59570000     -35.00300000     -70.00960000
H      -44.97270000     -34.53720000     -70.90660000
H      -45.49260000     -35.32960000     -69.46430000
C      -44.30680000     -31.61010000     -73.42310000
H      -45.26880000     -31.41460000     -73.94450000
H      -43.78700000     -30.65780000     -73.38070000
C      -44.44940000     -32.21510000     -72.03420000
H      -44.82110000     -33.25070000     -72.19120000
H      -43.45490000     -32.34170000     -71.61870000
C      -43.70170000     -33.98340000     -69.26270000
H      -42.84640000     -33.51820000     -69.91270000
H      -43.15940000     -34.36950000     -68.43620000
C      -44.60640000     -32.89150000     -68.78500000
C      -45.01900000     -32.74910000     -67.51060000
C      -45.31420000     -31.88710000     -69.60900000
H      -44.59610000     -33.10840000     -66.61300000
C      -46.16520000     -31.09180000     -68.86700000
C      -45.30130000     -31.51010000     -70.98020000
C      -46.27020000     -30.58220000     -71.26650000
S      -46.17980000     -31.43230000     -67.20330000
S      -47.22040000     -30.09420000     -69.88320000
H      -46.53690000     -30.16060000     -72.23940000
