40
Properties=species:S:1:pos:R:3 #=T CELL(abcABC):=T 1.889726e+02=T 90.00000=T Traj:=T positionsangstrom=T Step:=T 0=T Bead:=T pbc="F F F"
C      -47.94390000     -30.74650000     -73.41150000
C      -47.12440000     -31.86080000     -73.81920000
C      -47.46140000     -33.13290000     -73.32580000
C      -48.63090000     -33.35850000     -72.62070000
C      -49.46820000     -32.23140000     -72.32180000
C      -49.08450000     -30.97130000     -72.67560000
H      -47.88080000     -29.69730000     -73.75060000
H      -46.83610000     -34.00130000     -73.63040000
H      -50.41270000     -32.41240000     -71.78430000
H      -49.73630000     -30.20600000     -72.33420000
C      -48.89620000     -34.73980000     -72.20460000
H      -48.22720000     -35.44570000     -72.77160000
H      -49.86200000     -35.13650000     -72.57560000
C      -45.83260000     -31.58280000     -74.51870000
H      -45.86810000     -32.09640000     -75.48620000
H      -45.88780000     -30.56220000     -74.93400000
S      -48.68990000     -35.14660000     -70.39530000
S      -44.34210000     -31.98040000     -73.68810000
C      -46.91340000     -35.53750000     -70.22220000
H      -46.82590000     -36.09750000     -69.24240000
H      -46.61140000     -36.26930000     -70.98290000
C      -44.34990000     -30.75080000     -72.28370000
H      -45.22290000     -30.05320000     -72.49430000
H      -43.42850000     -30.12530000     -72.37420000
C      -44.50600000     -31.44150000     -70.95160000
H      -44.64090000     -30.68200000     -70.19830000
H      -45.55460000     -31.96990000     -70.86860000
C      -45.99980000     -34.35030000     -70.29910000
H      -46.41370000     -33.41200000     -69.95070000
H      -45.91930000     -34.15390000     -71.43830000
C      -44.64340000     -34.70530000     -69.78500000
C      -44.23790000     -35.89890000     -69.20340000
C      -43.54750000     -33.77560000     -69.98740000
H      -44.84810000     -36.62660000     -68.70360000
C      -42.38940000     -34.27760000     -69.54690000
C      -43.37860000     -32.46490000     -70.64920000
C      -42.03240000     -32.15880000     -70.69620000
S      -42.46910000     -35.88380000     -68.78860000
S      -41.00300000     -33.43130000     -70.04360000
H      -41.62910000     -31.21260000     -71.13750000
