40
Properties=species:S:1:pos:R:3 #=T CELL(abcABC):=T 1.889726e+02=T 90.00000=T Traj:=T positionsangstrom=T Step:=T 0=T Bead:=T pbc="F F F"
C      -47.79240000     -33.08700000     -71.54640000
C      -47.54650000     -32.71510000     -70.20020000
C      -46.79810000     -31.53760000     -69.92670000
C      -46.23250000     -30.80610000     -71.02120000
C      -46.49610000     -31.27150000     -72.37050000
C      -47.36260000     -32.30300000     -72.61630000
H      -48.53900000     -33.87650000     -71.72810000
H      -46.65230000     -31.20820000     -68.89450000
H      -45.90360000     -30.78530000     -73.18560000
H      -47.76360000     -32.43770000     -73.65110000
C      -45.42160000     -29.66640000     -70.76680000
H      -45.11950000     -29.54890000     -69.71510000
H      -45.79900000     -28.76430000     -71.18820000
C      -48.18500000     -33.50080000     -69.10330000
H      -48.22010000     -32.79170000     -68.26940000
H      -49.25320000     -33.68940000     -69.22930000
S      -43.73490000     -29.85300000     -71.65270000
S      -47.40470000     -35.05670000     -68.75010000
C      -42.69230000     -31.09620000     -70.70000000
H      -41.79660000     -31.38100000     -71.36440000
H      -42.29040000     -30.70840000     -69.73410000
C      -45.61980000     -34.54960000     -68.29280000
H      -45.43820000     -34.85030000     -67.29570000
H      -45.53870000     -33.44660000     -68.40550000
C      -44.57410000     -35.17370000     -69.15670000
H      -43.72140000     -34.43690000     -69.00540000
H      -44.27180000     -36.12780000     -68.72670000
C      -43.45080000     -32.40420000     -70.56330000
H      -44.47590000     -32.32000000     -70.04510000
H      -42.78420000     -33.00870000     -69.89000000
C      -43.57740000     -33.30660000     -71.86180000
C      -43.39370000     -32.93360000     -73.16510000
C      -44.24000000     -34.57950000     -71.81800000
H      -42.91070000     -32.07870000     -73.56270000
C      -44.36470000     -35.22380000     -73.04290000
C      -44.83330000     -35.34940000     -70.72630000
C      -45.51650000     -36.41160000     -71.24030000
S      -43.83410000     -34.16480000     -74.36590000
S      -45.26660000     -36.69320000     -72.99370000
H      -45.88450000     -37.14840000     -70.55610000
