40
Properties=species:S:1:pos:R:3 #=T CELL(abcABC):=T 1.889726e+02=T 90.00000=T Traj:=T positionsangstrom=T Step:=T 0=T Bead:=T pbc="F F F"
C      -47.94660000     -32.65850000     -71.72910000
C      -47.69680000     -32.45750000     -70.35700000
C      -46.71160000     -31.51880000     -69.99250000
C      -45.94340000     -30.85510000     -70.94420000
C      -46.36800000     -30.93190000     -72.32570000
C      -47.34300000     -31.86100000     -72.68730000
H      -48.78060000     -33.21730000     -72.12850000
H      -46.42040000     -31.45640000     -68.98160000
H      -45.75720000     -30.56740000     -73.19540000
H      -47.64620000     -31.97220000     -73.71080000
C      -44.83510000     -29.81510000     -70.55440000
H      -44.66950000     -29.83890000     -69.43940000
H      -45.12710000     -28.80920000     -70.86930000
C      -48.19040000     -33.32160000     -69.23650000
H      -47.91500000     -32.83340000     -68.21540000
H      -49.29600000     -33.36720000     -69.24610000
S      -43.13070000     -30.12960000     -71.37330000
S      -47.45630000     -35.00490000     -69.26010000
C      -42.37250000     -31.52510000     -70.46900000
H      -41.40050000     -31.77050000     -70.82010000
H      -42.13170000     -31.26020000     -69.44730000
C      -45.84860000     -34.58030000     -68.50490000
H      -45.84310000     -34.96100000     -67.51070000
H      -45.72600000     -33.48700000     -68.66190000
C      -44.66730000     -35.28720000     -69.24480000
H      -43.83470000     -34.62940000     -69.03880000
H      -44.52150000     -36.20590000     -68.74700000
C      -43.18480000     -32.83920000     -70.48280000
H      -43.95180000     -32.73830000     -69.75910000
H      -42.45950000     -33.56310000     -70.12470000
C      -43.73130000     -33.35830000     -71.71940000
C      -43.62450000     -32.85060000     -73.01620000
C      -44.36450000     -34.65080000     -71.74330000
H      -43.08540000     -31.93650000     -73.35060000
C      -44.72570000     -35.08450000     -73.02300000
C      -44.83670000     -35.52410000     -70.68810000
C      -45.52990000     -36.60840000     -71.22960000
S      -44.26090000     -34.00010000     -74.23630000
S      -45.51610000     -36.65570000     -72.97100000
H      -45.96620000     -37.51970000     -70.74640000
