40
Properties=species:S:1:pos:R:3 #=T CELL(abcABC):=T 1.889726e+02=T 90.00000=T Traj:=T positionsangstrom=T Step:=T 0=T Bead:=T pbc="F F F"
C      -47.65940000     -31.91040000     -68.18540000
C      -46.32140000     -32.24070000     -67.89400000
C      -45.28340000     -31.54190000     -68.53450000
C      -45.55520000     -30.50920000     -69.38870000
C      -46.90730000     -30.12230000     -69.65180000
C      -47.96910000     -30.94110000     -69.13030000
H      -48.47040000     -32.40890000     -67.67100000
H      -44.22700000     -31.68420000     -68.20580000
H      -47.13140000     -29.35040000     -70.33710000
H      -49.02230000     -30.72110000     -69.32140000
C      -44.35300000     -29.86380000     -70.02600000
H      -43.81030000     -29.21680000     -69.31750000
H      -44.59350000     -29.14830000     -70.88490000
C      -45.88880000     -33.32280000     -66.92730000
H      -44.98740000     -33.01770000     -66.38820000
H      -46.64160000     -33.44750000     -66.18410000
S      -43.06240000     -30.96890000     -70.73260000
S      -45.54410000     -34.83400000     -67.84940000
C      -44.06070000     -31.92200000     -71.96180000
H      -44.92350000     -32.27940000     -71.36740000
H      -44.25220000     -31.14350000     -72.70030000
C      -46.12370000     -34.87820000     -69.61540000
H      -46.66300000     -33.95100000     -69.82820000
H      -46.79170000     -35.72520000     -69.73540000
C      -44.98930000     -35.04200000     -70.66150000
H      -44.49230000     -34.13620000     -70.63750000
H      -44.23240000     -35.82850000     -70.31860000
C      -43.16720000     -33.00460000     -72.47850000
H      -42.81740000     -33.73740000     -71.76320000
H      -42.26350000     -32.55720000     -72.90240000
C      -43.82000000     -33.82280000     -73.65260000
C      -43.71980000     -33.53530000     -74.96740000
C      -44.82590000     -34.82880000     -73.39060000
H      -43.14590000     -32.71430000     -75.35170000
C      -45.50530000     -35.19080000     -74.51780000
C      -45.48180000     -35.29050000     -72.16970000
C      -46.50800000     -36.08810000     -72.44290000
S      -44.85140000     -34.45090000     -75.96650000
S      -46.79150000     -36.23670000     -74.15260000
H      -47.10850000     -36.72120000     -71.72830000
