40
Properties=species:S:1:pos:R:3 #=T CELL(abcABC):=T 1.889726e+02=T 90.00000=T Traj:=T positionsangstrom=T Step:=T 0=T Bead:=T pbc="F F F"
C      -47.89600000     -31.53190000     -74.17450000
C      -47.04230000     -32.64020000     -74.06800000
C      -47.42780000     -33.70020000     -73.26380000
C      -48.64700000     -33.69710000     -72.61860000
C      -49.43700000     -32.56490000     -72.78210000
C      -49.13510000     -31.41680000     -73.51620000
H      -47.60650000     -30.78580000     -74.94160000
H      -46.60100000     -34.38470000     -73.06880000
H      -50.39150000     -32.65340000     -72.27680000
H      -49.85930000     -30.58980000     -73.52080000
C      -48.99220000     -34.85610000     -71.76490000
H      -48.37590000     -35.77270000     -71.72490000
H      -50.02620000     -35.19380000     -71.94100000
C      -45.80210000     -32.50440000     -74.95410000
H      -45.94650000     -33.13720000     -75.82830000
H      -45.98460000     -31.55800000     -75.36620000
S      -48.85260000     -34.42390000     -69.97950000
S      -44.24080000     -32.78580000     -74.07670000
C      -47.17970000     -35.10090000     -69.54820000
H      -47.14210000     -35.48950000     -68.54080000
H      -46.97430000     -35.98740000     -70.19060000
C      -44.20190000     -31.29380000     -72.89810000
H      -44.90090000     -30.56730000     -73.14080000
H      -43.20490000     -30.89940000     -72.95090000
C      -44.51330000     -31.62250000     -71.45820000
H      -44.72240000     -30.72540000     -70.97550000
H      -45.39310000     -32.24740000     -71.34220000
C      -46.09110000     -33.99850000     -69.78690000
H      -46.46590000     -33.10690000     -69.29930000
H      -46.16850000     -33.77540000     -70.84360000
C      -44.61560000     -34.28480000     -69.44360000
C      -44.23420000     -35.33620000     -68.68750000
C      -43.52370000     -33.43740000     -69.91500000
H      -44.83220000     -36.10670000     -68.19620000
C      -42.33390000     -33.90070000     -69.39980000
C      -43.33900000     -32.29790000     -70.68750000
C      -42.01880000     -31.89790000     -70.76760000
S      -42.46650000     -35.35990000     -68.45600000
S      -40.93500000     -32.96130000     -69.92000000
H      -41.62040000     -31.18140000     -71.45000000
