40
Properties=species:S:1:pos:R:3 #=T CELL(abcABC):=T 1.889726e+02=T 90.00000=T Traj:=T positionsangstrom=T Step:=T 0=T Bead:=T pbc="F F F"
C      -47.84860000     -31.51750000     -74.05930000
C      -47.08610000     -32.69010000     -74.16880000
C      -47.59580000     -33.81480000     -73.51740000
C      -48.74570000     -33.75730000     -72.68690000
C      -49.42560000     -32.52370000     -72.60090000
C      -49.02280000     -31.41940000     -73.34150000
H      -47.49490000     -30.63300000     -74.66590000
H      -47.00140000     -34.71680000     -73.67090000
H      -50.34800000     -32.49720000     -72.02280000
H      -49.46580000     -30.46530000     -73.47320000
C      -49.17700000     -34.93830000     -71.77510000
H      -48.49450000     -35.77770000     -72.01400000
H      -50.23040000     -35.23130000     -71.87260000
C      -45.92490000     -32.72640000     -75.02400000
H      -45.91120000     -33.47890000     -75.83940000
H      -45.67350000     -31.84900000     -75.51170000
S      -48.98940000     -34.31250000     -69.95450000
S      -44.31070000     -33.25940000     -74.21670000
C      -47.16300000     -34.70600000     -69.60290000
H      -47.20100000     -34.73650000     -68.50160000
H      -47.03710000     -35.75790000     -70.03890000
C      -43.75350000     -31.66200000     -73.29780000
H      -44.22940000     -30.72620000     -73.67210000
H      -42.65910000     -31.45890000     -73.66750000
C      -44.07360000     -31.74370000     -71.82030000
H      -44.26750000     -30.67350000     -71.54040000
H      -45.05470000     -32.11530000     -71.59260000
C      -46.07320000     -33.87200000     -70.13840000
H      -46.34200000     -32.80680000     -70.09080000
H      -45.93980000     -34.01390000     -71.23600000
C      -44.65090000     -34.10120000     -69.48370000
C      -44.40560000     -35.04700000     -68.48400000
C      -43.46490000     -33.35390000     -69.92180000
H      -45.01270000     -35.86070000     -68.10500000
C      -42.32720000     -33.81450000     -69.25410000
C      -43.05280000     -32.33520000     -70.96090000
C      -41.67900000     -32.15340000     -70.96280000
S      -42.75030000     -34.95340000     -67.96950000
S      -40.89070000     -32.96600000     -69.66690000
H      -41.10150000     -31.49910000     -71.67830000
