40
Properties=species:S:1:pos:R:3 #=T CELL(abcABC):=T 1.889726e+02=T 90.00000=T Traj:=T positionsangstrom=T Step:=T 0=T Bead:=T pbc="F F F"
C      -47.75080000     -32.25830000     -71.13220000
C      -47.16990000     -32.10380000     -69.89000000
C      -45.92470000     -31.44450000     -69.76440000
C      -45.20540000     -31.07940000     -70.84490000
C      -45.77790000     -31.26170000     -72.09670000
C      -47.04240000     -31.80220000     -72.27760000
H      -48.76480000     -32.65430000     -71.24660000
H      -45.57060000     -31.34180000     -68.78870000
H      -45.22990000     -30.87030000     -72.98320000
H      -47.54420000     -31.88020000     -73.25800000
C      -43.85510000     -30.43580000     -70.50640000
H      -43.55220000     -30.64060000     -69.45800000
H      -43.85450000     -29.36330000     -70.60680000
C      -47.88720000     -32.67730000     -68.63000000
H      -47.61100000     -32.16480000     -67.65610000
H      -48.93420000     -32.60600000     -68.65410000
S      -42.40680000     -31.01250000     -71.54550000
S      -47.51940000     -34.55370000     -68.41810000
C      -41.73930000     -32.60690000     -71.05480000
H      -41.11240000     -32.97970000     -71.88290000
H      -41.04940000     -32.51380000     -70.20800000
C      -45.61120000     -34.55350000     -68.59560000
H      -45.09420000     -34.60550000     -67.59090000
H      -45.43240000     -33.54150000     -69.00200000
C      -45.19430000     -35.63930000     -69.56830000
H      -44.11020000     -35.73450000     -69.44090000
H      -45.70530000     -36.54830000     -69.21980000
C      -42.73620000     -33.67760000     -70.78530000
H      -43.39730000     -33.45350000     -69.93900000
H      -42.29920000     -34.64420000     -70.48130000
C      -43.64040000     -33.85980000     -72.01340000
C      -43.32170000     -33.41230000     -73.27830000
C      -44.89420000     -34.59970000     -71.97970000
H      -42.46590000     -32.77800000     -73.45920000
C      -45.40990000     -34.76920000     -73.31900000
C      -45.62250000     -35.39890000     -71.00530000
C      -46.69170000     -36.02860000     -71.50870000
S      -44.51880000     -33.84560000     -74.50940000
S      -47.00170000     -35.52220000     -73.22450000
H      -47.50330000     -36.63730000     -71.06210000
