40
Properties=species:S:1:pos:R:3 #=T CELL(abcABC):=T 1.889726e+02=T 90.00000=T Traj:=T positionsangstrom=T Step:=T 0=T Bead:=T pbc="F F F"
C      -47.35990000     -32.10930000     -71.51940000
C      -47.00850000     -32.20080000     -70.18170000
C      -45.77890000     -31.61800000     -69.83740000
C      -44.98160000     -30.90560000     -70.77240000
C      -45.38670000     -30.83360000     -72.07260000
C      -46.56170000     -31.43370000     -72.40670000
H      -48.26230000     -32.67820000     -71.82760000
H      -45.47490000     -31.66190000     -68.72510000
H      -44.74200000     -30.25340000     -72.75650000
H      -46.89210000     -31.31700000     -73.41850000
C      -43.56880000     -30.41770000     -70.34080000
H      -43.38170000     -30.59660000     -69.28330000
H      -43.54100000     -29.30810000     -70.53820000
C      -47.82910000     -32.78760000     -69.07060000
H      -47.49470000     -32.28240000     -68.20440000
H      -48.94920000     -32.59740000     -69.24130000
S      -42.24840000     -30.89670000     -71.50720000
S      -47.62860000     -34.58220000     -68.70250000
C      -41.68970000     -32.70720000     -71.12240000
H      -41.00470000     -32.90370000     -71.96830000
H      -41.02000000     -32.76320000     -70.20760000
C      -45.83350000     -34.78790000     -68.41430000
H      -45.75770000     -35.11530000     -67.35670000
H      -45.36640000     -33.80750000     -68.60420000
C      -45.06870000     -35.70890000     -69.47390000
H      -44.04130000     -35.58080000     -69.17740000
H      -45.24800000     -36.78240000     -69.21340000
C      -42.83510000     -33.71030000     -70.86810000
H      -43.39790000     -33.38880000     -70.00990000
H      -42.49070000     -34.67240000     -70.67920000
C      -43.83990000     -33.88680000     -71.95390000
C      -43.67490000     -33.28480000     -73.19180000
C      -45.01620000     -34.67140000     -71.89520000
H      -42.82010000     -32.80070000     -73.62810000
C      -45.71320000     -34.72270000     -73.06700000
C      -45.56700000     -35.52390000     -70.88920000
C      -46.72450000     -36.08840000     -71.32520000
S      -44.95700000     -33.76720000     -74.32210000
S      -47.06460000     -35.75610000     -73.08740000
H      -47.32600000     -36.78160000     -70.77840000
