40
Properties=species:S:1:pos:R:3 #=T CELL(abcABC):=T 1.889726e+02=T 90.00000=T Traj:=T positionsangstrom=T Step:=T 0=T Bead:=T pbc="F F F"
C      -46.73470000     -34.25800000     -74.24890000
C      -45.34300000     -34.51500000     -74.53680000
C      -44.84660000     -35.66770000     -73.89630000
C      -45.49780000     -36.32230000     -72.84650000
C      -46.83560000     -35.97330000     -72.53880000
C      -47.48430000     -35.02290000     -73.35130000
H      -47.29420000     -33.51560000     -74.80800000
H      -43.72510000     -35.90080000     -73.95740000
H      -47.34670000     -36.58130000     -71.79430000
H      -48.50260000     -34.63880000     -73.30510000
C      -44.84770000     -37.37490000     -71.99500000
H      -44.24780000     -38.11220000     -72.53840000
H      -45.61760000     -38.03240000     -71.55620000
C      -44.49980000     -33.64940000     -75.39020000
H      -43.74100000     -34.33050000     -75.82670000
H      -45.09120000     -33.13850000     -76.18650000
S      -43.72740000     -36.55810000     -70.77090000
S      -43.35690000     -32.49720000     -74.59680000
C      -44.79550000     -35.39160000     -69.75590000
H      -45.49510000     -34.97790000     -70.47160000
H      -45.38150000     -36.04320000     -69.05940000
C      -44.52550000     -31.78200000     -73.31370000
H      -45.45970000     -31.67250000     -73.94060000
H      -44.14720000     -30.68960000     -73.04780000
C      -44.62140000     -32.47460000     -72.00010000
H      -45.03900000     -33.46090000     -72.01130000
H      -43.61750000     -32.55900000     -71.57240000
C      -44.05030000     -34.23920000     -69.05390000
H      -43.23200000     -33.86750000     -69.61910000
H      -43.57600000     -34.65160000     -68.20480000
C      -44.97340000     -33.11130000     -68.70210000
C      -45.31840000     -32.86530000     -67.39700000
C      -45.50680000     -32.04280000     -69.56440000
H      -44.91460000     -33.42540000     -66.48800000
C      -46.31740000     -31.15660000     -68.87080000
C      -45.44630000     -31.72810000     -71.01330000
C      -46.35690000     -30.66840000     -71.31150000
S      -46.33450000     -31.37790000     -67.14180000
S      -46.96720000     -29.86170000     -69.86950000
H      -46.44070000     -30.22410000     -72.28690000
