40
Properties=species:S:1:pos:R:3 #=T CELL(abcABC):=T 1.889726e+02=T 90.00000=T Traj:=T positionsangstrom=T Step:=T 0=T Bead:=T pbc="F F F"
C      -47.31540000     -31.51060000     -71.36320000
C      -46.86400000     -31.92520000     -70.09510000
C      -45.57340000     -31.59560000     -69.75480000
C      -44.76750000     -30.83530000     -70.60980000
C      -45.18320000     -30.41550000     -71.84990000
C      -46.52700000     -30.68970000     -72.20830000
H      -48.32080000     -31.63030000     -71.62410000
H      -45.23100000     -32.01060000     -68.84200000
H      -44.57190000     -29.91240000     -72.59880000
H      -46.87980000     -30.40920000     -73.21440000
C      -43.40080000     -30.54760000     -70.15030000
H      -43.17290000     -31.07540000     -69.17980000
H      -43.42750000     -29.45610000     -70.01510000
C      -47.78420000     -32.59610000     -69.06550000
H      -47.77390000     -32.06420000     -68.09540000
H      -48.79560000     -32.50160000     -69.36150000
S      -42.12730000     -30.88160000     -71.46790000
S      -47.54720000     -34.47480000     -68.90420000
C      -41.80820000     -32.67570000     -71.24250000
H      -41.20890000     -33.01990000     -72.13090000
H      -41.10890000     -32.72630000     -70.32810000
C      -45.75380000     -34.76490000     -68.48490000
H      -45.80560000     -35.15030000     -67.47180000
H      -45.11650000     -33.85450000     -68.54840000
C      -45.13330000     -35.86390000     -69.44210000
H      -44.04460000     -35.66130000     -69.36250000
H      -45.29650000     -36.77280000     -68.95990000
C      -42.98250000     -33.62180000     -71.01490000
H      -43.49030000     -33.36290000     -70.14780000
H      -42.61780000     -34.60170000     -70.77420000
C      -43.97660000     -33.89530000     -72.08410000
C      -43.83630000     -33.43060000     -73.37070000
C      -45.04870000     -34.87180000     -71.96150000
H      -43.16590000     -32.68540000     -73.69510000
C      -45.85080000     -34.94960000     -73.11460000
C      -45.62070000     -35.72250000     -70.86170000
C      -46.68860000     -36.39570000     -71.29000000
S      -45.15980000     -33.98350000     -74.42140000
S      -47.18110000     -36.11300000     -73.00600000
H      -47.31760000     -37.06420000     -70.75650000
