40
Properties=species:S:1:pos:R:3 #=T CELL(abcABC):=T 1.889726e+02=T 90.00000=T Traj:=T positionsangstrom=T Step:=T 0=T Bead:=T pbc="F F F"
C      -47.45620000     -31.45470000     -70.75170000
C      -46.73310000     -31.56180000     -69.54950000
C      -45.38520000     -31.14390000     -69.49750000
C      -44.66540000     -30.75740000     -70.65380000
C      -45.37830000     -30.66560000     -71.86480000
C      -46.74710000     -31.05560000     -71.86170000
H      -48.48610000     -31.82760000     -70.88270000
H      -44.83820000     -31.02960000     -68.57060000
H      -44.87980000     -30.34140000     -72.82290000
H      -47.20200000     -31.03020000     -72.87180000
C      -43.23300000     -30.41560000     -70.48060000
H      -42.89270000     -30.53350000     -69.47060000
H      -43.07570000     -29.32430000     -70.63650000
C      -47.36580000     -32.34790000     -68.38670000
H      -46.63560000     -32.39250000     -67.54600000
H      -48.32330000     -32.02100000     -68.07780000
S      -42.07650000     -31.18060000     -71.75110000
S      -47.42330000     -34.13100000     -68.85330000
C      -41.86150000     -32.91570000     -71.13780000
H      -41.11490000     -33.44660000     -71.74620000
H      -41.34890000     -32.87930000     -70.15910000
C      -45.66710000     -34.58720000     -68.76180000
H      -45.46530000     -34.87760000     -67.73500000
H      -45.07210000     -33.69070000     -68.92870000
C      -45.34980000     -35.83630000     -69.56360000
H      -44.33670000     -36.25730000     -69.47470000
H      -45.82750000     -36.65760000     -69.10680000
C      -43.20810000     -33.64490000     -70.89860000
H      -43.85240000     -33.07410000     -70.18610000
H      -43.03800000     -34.54620000     -70.35280000
C      -44.12350000     -33.96800000     -72.08760000
C      -43.84630000     -33.48660000     -73.35880000
C      -45.18920000     -34.93710000     -72.06080000
H      -43.12270000     -32.75620000     -73.64890000
C      -45.90360000     -34.99640000     -73.24460000
C      -45.74690000     -35.87400000     -71.04160000
C      -46.80620000     -36.56930000     -71.54310000
S      -45.12760000     -33.96940000     -74.42890000
S      -47.18880000     -36.20640000     -73.28000000
H      -47.60280000     -37.23750000     -71.07250000
