40
Properties=species:S:1:pos:R:3 #=T CELL(abcABC):=T 1.889726e+02=T 90.00000=T Traj:=T positionsangstrom=T Step:=T 0=T Bead:=T pbc="F F F"
C      -47.30930000     -31.89020000     -70.53650000
C      -46.51320000     -31.76830000     -69.42380000
C      -45.21120000     -31.15670000     -69.63700000
C      -44.73570000     -30.88000000     -70.87660000
C      -45.58360000     -31.09220000     -71.94340000
C      -46.85980000     -31.58330000     -71.81950000
H      -48.28180000     -32.34250000     -70.44880000
H      -44.54320000     -30.97580000     -68.77040000
H      -45.18880000     -31.05980000     -72.95110000
H      -47.42140000     -31.86210000     -72.76080000
C      -43.34590000     -30.33160000     -71.02640000
H      -42.85800000     -30.35610000     -70.05970000
H      -43.34990000     -29.26610000     -71.39480000
C      -46.84610000     -32.22160000     -68.01470000
H      -45.98390000     -32.02980000     -67.35030000
H      -47.73410000     -31.81000000     -67.55830000
S      -42.34170000     -31.31200000     -72.15180000
S      -47.22060000     -34.02070000     -68.08100000
C      -41.89370000     -32.87500000     -71.23040000
H      -41.19850000     -33.40630000     -71.81590000
H      -41.36640000     -32.64650000     -70.32320000
C      -45.53620000     -34.62740000     -68.64940000
H      -44.93740000     -34.90570000     -67.79030000
H      -45.05250000     -33.69510000     -69.12750000
C      -45.46030000     -35.80650000     -69.66450000
H      -44.45220000     -36.07180000     -69.89980000
H      -45.98290000     -36.64160000     -69.28930000
C      -43.09340000     -33.81490000     -70.96470000
H      -43.76080000     -33.45180000     -70.20760000
H      -42.74100000     -34.77840000     -70.66890000
C      -43.97360000     -34.14840000     -72.16700000
C      -43.66170000     -33.72360000     -73.44510000
C      -45.32040000     -34.74530000     -72.08930000
H      -42.72170000     -33.25830000     -73.84370000
C      -45.92900000     -34.72200000     -73.29340000
C      -46.03520000     -35.45960000     -71.04590000
C      -47.15760000     -36.08010000     -71.50160000
S      -44.96980000     -34.15830000     -74.59970000
S      -47.41180000     -35.69170000     -73.20740000
H      -47.86450000     -36.61790000     -70.75840000
