40
Properties=species:S:1:pos:R:3 #=T CELL(abcABC):=T 1.889726e+02=T 90.00000=T Traj:=T positionsangstrom=T Step:=T 0=T Bead:=T pbc="F F F"
C      -46.62460000     -34.10600000     -74.33010000
C      -45.26900000     -34.50620000     -74.60440000
C      -44.70580000     -35.51400000     -73.85710000
C      -45.37990000     -36.19110000     -72.85910000
C      -46.73880000     -35.85030000     -72.63200000
C      -47.28590000     -34.80280000     -73.34250000
H      -47.14460000     -33.36680000     -74.92960000
H      -43.77030000     -35.90620000     -74.23030000
H      -47.21720000     -36.40180000     -71.87790000
H      -48.28880000     -34.44540000     -73.01360000
C      -44.74700000     -37.25080000     -71.99990000
H      -44.01490000     -37.87090000     -72.57430000
H      -45.59740000     -37.73830000     -71.55190000
C      -44.38530000     -33.82350000     -75.59080000
H      -43.67660000     -34.47680000     -76.11640000
H      -44.90190000     -33.28670000     -76.37200000
S      -43.64700000     -36.46090000     -70.77660000
S      -43.57740000     -32.47950000     -74.50310000
C      -44.90150000     -35.34490000     -70.02440000
H      -45.46040000     -34.87390000     -70.84930000
H      -45.54880000     -35.86510000     -69.28070000
C      -44.73140000     -31.75550000     -73.33860000
H      -45.75490000     -31.80140000     -73.69500000
H      -44.47810000     -30.75940000     -73.24630000
C      -44.77240000     -32.47420000     -72.02510000
H      -45.37710000     -33.36560000     -72.24840000
H      -43.76900000     -32.90580000     -71.82650000
C      -44.14350000     -34.31040000     -69.19310000
H      -43.33900000     -33.83100000     -69.86010000
H      -43.63980000     -34.74530000     -68.34890000
C      -45.00390000     -33.14500000     -68.67840000
C      -45.42790000     -33.03640000     -67.36870000
C      -45.57380000     -32.12210000     -69.53080000
H      -45.22860000     -33.71890000     -66.53450000
C      -46.29700000     -31.24730000     -68.80050000
C      -45.44800000     -31.74950000     -70.94270000
C      -46.21600000     -30.59460000     -71.21110000
S      -46.34980000     -31.61200000     -67.09450000
S      -46.91730000     -29.90880000     -69.73610000
H      -46.47580000     -30.15730000     -72.19520000
