40
Properties=species:S:1:pos:R:3 #=T CELL(abcABC):=T 1.889726e+02=T 90.00000=T Traj:=T positionsangstrom=T Step:=T 0=T Bead:=T pbc="F F F"
C      -47.34050000     -31.78030000     -70.84070000
C      -46.73680000     -31.77640000     -69.60430000
C      -45.35530000     -31.39520000     -69.65920000
C      -44.70570000     -30.97880000     -70.79980000
C      -45.45170000     -30.98650000     -72.01910000
C      -46.76220000     -31.36570000     -72.00380000
H      -48.39620000     -32.03910000     -70.81400000
H      -44.81870000     -31.38330000     -68.64000000
H      -44.96860000     -30.67420000     -72.99500000
H      -47.35200000     -31.33260000     -72.90220000
C      -43.23740000     -30.58320000     -70.85080000
H      -42.83870000     -30.99210000     -69.91420000
H      -43.10110000     -29.47700000     -70.77390000
C      -47.38880000     -32.26830000     -68.32640000
H      -47.11700000     -31.73450000     -67.48660000
H      -48.47900000     -32.05270000     -68.49710000
S      -42.37200000     -31.23800000     -72.33090000
S      -47.08960000     -34.10480000     -67.94320000
C      -41.76580000     -32.93040000     -71.79640000
H      -41.08080000     -33.26010000     -72.61330000
H      -41.12080000     -32.74580000     -70.94430000
C      -45.22290000     -34.44160000     -68.47210000
H      -44.58680000     -34.66180000     -67.58160000
H      -44.70660000     -33.63670000     -69.00410000
C      -45.09320000     -35.58570000     -69.53880000
H      -44.05450000     -35.61620000     -69.76500000
H      -45.51640000     -36.54570000     -69.06610000
C      -42.86110000     -33.89240000     -71.29930000
H      -43.43590000     -33.40500000     -70.53170000
H      -42.37660000     -34.78380000     -70.85160000
C      -43.80270000     -34.39890000     -72.35530000
C      -43.65430000     -34.25380000     -73.68980000
C      -45.19520000     -34.76660000     -71.96110000
H      -42.74450000     -34.09270000     -74.17120000
C      -45.98840000     -34.87420000     -73.12380000
C      -45.93170000     -35.25300000     -70.80830000
C      -47.24150000     -35.61830000     -71.06710000
S      -45.12230000     -34.59880000     -74.67110000
S      -47.65650000     -35.18630000     -72.70090000
H      -48.01750000     -35.83490000     -70.42930000
