40
Properties=species:S:1:pos:R:3 #=T CELL(abcABC):=T 1.889726e+02=T 90.00000=T Traj:=T positionsangstrom=T Step:=T 0=T Bead:=T pbc="F F F"
C      -47.32370000     -32.42970000     -74.66140000
C      -46.95080000     -33.63650000     -73.93050000
C      -47.58720000     -33.82020000     -72.70050000
C      -48.35150000     -32.85170000     -72.05770000
C      -48.47180000     -31.62460000     -72.65890000
C      -48.00300000     -31.44310000     -73.98130000
H      -46.78080000     -32.27560000     -75.62250000
H      -47.51690000     -34.80610000     -72.23650000
H      -48.94830000     -30.82810000     -72.14700000
H      -48.25420000     -30.51470000     -74.47450000
C      -49.06820000     -33.16280000     -70.73790000
H      -48.81490000     -34.18580000     -70.48240000
H      -50.14660000     -33.16430000     -71.00130000
C      -45.99880000     -34.65980000     -74.50520000
H      -46.25870000     -35.71700000     -74.13620000
H      -46.24580000     -34.68770000     -75.57100000
S      -48.84220000     -32.04180000     -69.34330000
S      -44.13670000     -34.21210000     -74.26140000
C      -47.17910000     -32.55490000     -68.62970000
H      -47.14400000     -31.92350000     -67.68420000
H      -47.29140000     -33.53960000     -68.20580000
C      -43.89380000     -32.36550000     -73.82350000
H      -44.58100000     -31.68280000     -74.36400000
H      -42.85210000     -32.20980000     -74.09770000
C      -44.01450000     -32.12320000     -72.36550000
H      -43.71100000     -31.08640000     -72.10390000
H      -45.03380000     -32.32060000     -71.93560000
C      -45.95500000     -32.27340000     -69.54440000
H      -45.57140000     -31.31030000     -69.29740000
H      -46.35600000     -32.21810000     -70.56710000
C      -44.75890000     -33.23110000     -69.30410000
C      -44.60340000     -34.01900000     -68.15810000
C      -43.63240000     -33.46430000     -70.16570000
H      -45.26060000     -34.12360000     -67.30500000
C      -42.73880000     -34.48580000     -69.62900000
C      -43.17760000     -33.05490000     -71.43890000
C      -41.99950000     -33.69260000     -71.88230000
S      -43.26750000     -35.07000000     -68.02050000
S      -41.39390000     -34.78220000     -70.69270000
H      -41.45370000     -33.43790000     -72.75800000
