40
Properties=species:S:1:pos:R:3 #=T CELL(abcABC):=T 1.889726e+02=T 90.00000=T Traj:=T positionsangstrom=T Step:=T 0=T Bead:=T pbc="F F F"
C      -46.99590000     -32.01130000     -74.50710000
C      -46.99810000     -33.30490000     -73.85100000
C      -47.63670000     -33.49300000     -72.66740000
C      -48.55030000     -32.49250000     -72.16590000
C      -48.56760000     -31.27800000     -72.79120000
C      -47.73000000     -30.97130000     -73.94120000
H      -46.52580000     -31.89810000     -75.48820000
H      -47.57350000     -34.39200000     -72.13240000
H      -49.28240000     -30.45010000     -72.53260000
H      -47.81360000     -29.97590000     -74.42900000
C      -49.28830000     -32.70020000     -70.87760000
H      -49.33830000     -33.77180000     -70.63530000
H      -50.37340000     -32.34430000     -70.93210000
C      -46.45490000     -34.49260000     -74.54130000
H      -46.94930000     -35.38850000     -74.21070000
H      -46.60570000     -34.40580000     -75.61740000
S      -48.64660000     -31.72060000     -69.44640000
S      -44.57100000     -34.77360000     -74.32520000
C      -47.11310000     -32.61680000     -68.80860000
H      -46.90390000     -32.12060000     -67.87820000
H      -47.46520000     -33.51280000     -68.42440000
C      -43.85080000     -32.97920000     -73.97490000
H      -44.39310000     -32.22540000     -74.60510000
H      -42.85530000     -33.13560000     -74.18210000
C      -43.88970000     -32.53890000     -72.39540000
H      -43.28050000     -31.64960000     -72.29670000
H      -44.95470000     -32.41300000     -72.27070000
C      -46.00000000     -32.73590000     -69.82010000
H      -45.84010000     -31.75530000     -70.24290000
H      -46.17920000     -33.45860000     -70.58480000
C      -44.70710000     -33.37190000     -69.31610000
C      -44.52700000     -33.86590000     -68.03150000
C      -43.60990000     -33.71490000     -70.12610000
H      -45.22760000     -33.82110000     -67.20540000
C      -42.66590000     -34.49140000     -69.47790000
C      -43.20590000     -33.48320000     -71.46160000
C      -41.94600000     -33.98040000     -71.79010000
S      -43.08880000     -34.81500000     -67.85070000
S      -41.29890000     -34.91780000     -70.48160000
H      -41.42330000     -33.88220000     -72.71870000
