40
Properties=species:S:1:pos:R:3 #=T CELL(abcABC):=T 1.889726e+02=T 90.00000=T Traj:=T positionsangstrom=T Step:=T 0=T Bead:=T pbc="F F F"
C      -47.20430000     -32.07000000     -74.83180000
C      -47.23050000     -33.30390000     -74.11690000
C      -47.92590000     -33.38710000     -72.86310000
C      -48.36240000     -32.25510000     -72.20170000
C      -48.23540000     -31.00860000     -72.86580000
C      -47.60210000     -30.92020000     -74.11990000
H      -46.63040000     -31.96710000     -75.71670000
H      -48.09360000     -34.38860000     -72.49880000
H      -48.42890000     -30.10290000     -72.28930000
H      -47.59680000     -29.90940000     -74.56560000
C      -49.20000000     -32.46220000     -70.90040000
H      -49.34700000     -33.52080000     -70.81080000
H      -50.19540000     -32.09450000     -71.04640000
C      -46.52430000     -34.54830000     -74.61690000
H      -47.07980000     -35.51390000     -74.29300000
H      -46.46900000     -34.57120000     -75.69250000
S      -48.54240000     -31.68270000     -69.31060000
S      -44.78290000     -34.83060000     -74.10490000
C      -47.07380000     -32.68600000     -68.88350000
H      -46.69560000     -32.27670000     -67.88240000
H      -47.28110000     -33.81160000     -68.76530000
C      -43.95320000     -33.11280000     -74.01720000
H      -44.74550000     -32.45170000     -74.45550000
H      -43.07290000     -33.17300000     -74.66940000
C      -43.93210000     -32.69800000     -72.53510000
H      -43.49660000     -31.71040000     -72.38260000
H      -44.95290000     -32.55050000     -72.20680000
C      -45.82000000     -32.62430000     -69.84070000
H      -45.51510000     -31.56800000     -70.10000000
H      -46.19670000     -32.98290000     -70.86330000
C      -44.66540000     -33.38640000     -69.33110000
C      -44.64100000     -33.88690000     -68.01010000
C      -43.53450000     -33.70390000     -70.12380000
H      -45.39810000     -33.63200000     -67.34270000
C      -42.58420000     -34.43160000     -69.40200000
C      -43.22540000     -33.68600000     -71.56750000
C      -41.90180000     -34.18690000     -71.79300000
S      -43.04920000     -34.72660000     -67.74150000
S      -41.29120000     -35.05290000     -70.33540000
H      -41.30770000     -34.24170000     -72.68010000
