40
Properties=species:S:1:pos:R:3 #=T CELL(abcABC):=T 1.889726e+02=T 90.00000=T Traj:=T positionsangstrom=T Step:=T 0=T Bead:=T pbc="F F F"
C      -46.85550000     -32.15050000     -74.51690000
C      -47.27660000     -33.24490000     -73.73030000
C      -48.05580000     -32.92140000     -72.59840000
C      -48.30550000     -31.58900000     -72.13700000
C      -47.81660000     -30.56110000     -72.90590000
C      -47.10900000     -30.83510000     -74.10080000
H      -46.49330000     -32.31620000     -75.53950000
H      -48.40350000     -33.68740000     -71.93010000
H      -47.95050000     -29.47560000     -72.73090000
H      -47.02470000     -30.07660000     -74.86020000
C      -49.05450000     -31.33320000     -70.79300000
H      -49.40240000     -32.31620000     -70.41970000
H      -49.92630000     -30.61560000     -70.97080000
C      -46.98780000     -34.63640000     -74.20690000
H      -47.78040000     -35.30910000     -74.17210000
H      -46.89930000     -34.55780000     -75.33870000
S      -47.79860000     -30.50750000     -69.66320000
S      -45.58840000     -35.66270000     -73.58120000
C      -46.69630000     -31.80730000     -69.02240000
H      -45.99330000     -31.25190000     -68.38100000
H      -47.18060000     -32.57730000     -68.47120000
C      -44.27090000     -34.50200000     -73.98920000
H      -44.64350000     -33.97700000     -74.86960000
H      -43.36280000     -34.93150000     -74.34220000
C      -43.97290000     -33.46120000     -72.87000000
H      -43.49990000     -32.55350000     -73.29270000
H      -44.97910000     -33.11470000     -72.52410000
C      -45.87020000     -32.62360000     -70.07340000
H      -45.52090000     -31.92360000     -70.79970000
H      -46.50820000     -33.29510000     -70.66690000
C      -44.67150000     -33.42060000     -69.51880000
C      -44.49790000     -33.64820000     -68.19340000
C      -43.58060000     -33.93690000     -70.30790000
H      -45.23250000     -33.34500000     -67.46020000
C      -42.68840000     -34.66670000     -69.53270000
C      -43.20050000     -34.03970000     -71.67250000
C      -42.13830000     -34.86790000     -71.83650000
S      -43.03900000     -34.62590000     -67.83770000
S      -41.45630000     -35.54090000     -70.37650000
H      -41.57900000     -35.07710000     -72.73400000
