40
Properties=species:S:1:pos:R:3 #=T CELL(abcABC):=T 1.889726e+02=T 90.00000=T Traj:=T positionsangstrom=T Step:=T 0=T Bead:=T pbc="F F F"
C      -46.97850000     -32.15040000     -74.84510000
C      -47.36380000     -33.21940000     -73.99180000
C      -47.88120000     -32.81110000     -72.70470000
C      -48.01170000     -31.45920000     -72.38850000
C      -47.58260000     -30.43090000     -73.29650000
C      -47.07710000     -30.81120000     -74.52670000
H      -46.57830000     -32.30240000     -75.91880000
H      -48.23280000     -33.62090000     -72.01670000
H      -47.54290000     -29.40000000     -72.97210000
H      -46.83650000     -30.03350000     -75.26260000
C      -48.57280000     -31.09070000     -71.01870000
H      -49.05260000     -31.91330000     -70.64560000
H      -49.32590000     -30.31960000     -71.23230000
C      -47.25800000     -34.60580000     -74.45390000
H      -48.13390000     -35.13180000     -74.28250000
H      -46.96430000     -34.69370000     -75.56160000
S      -47.30080000     -30.33600000     -69.90650000
S      -45.98690000     -35.29730000     -73.29350000
C      -46.48200000     -31.76230000     -69.02180000
H      -46.14180000     -31.42650000     -67.99980000
H      -47.12180000     -32.58760000     -68.88320000
C      -44.43590000     -34.40530000     -73.79310000
H      -44.67040000     -33.89000000     -74.77230000
H      -43.61370000     -35.05340000     -74.03010000
C      -44.02660000     -33.44410000     -72.67920000
H      -43.48450000     -32.63280000     -73.14670000
H      -44.94370000     -32.99740000     -72.24680000
C      -45.19000000     -32.13060000     -69.74170000
H      -44.58830000     -31.16870000     -69.74340000
H      -45.50480000     -32.26810000     -70.82420000
C      -44.49400000     -33.31080000     -69.24780000
C      -44.49360000     -33.78760000     -67.91500000
C      -43.60910000     -34.02690000     -70.14030000
H      -45.10740000     -33.51360000     -67.05380000
C      -42.89550000     -35.01220000     -69.39340000
C      -43.29380000     -34.09190000     -71.56070000
C      -42.28090000     -34.98870000     -71.77230000
S      -43.32190000     -35.11920000     -67.72950000
S      -41.78090000     -35.91650000     -70.35430000
H      -41.72980000     -35.30410000     -72.69230000
