40
Properties=species:S:1:pos:R:3 #=T CELL(abcABC):=T 1.889726e+02=T 90.00000=T Traj:=T positionsangstrom=T Step:=T 0=T Bead:=T pbc="F F F"
C      -46.90210000     -31.99680000     -74.85320000
C      -47.18810000     -33.04730000     -73.95720000
C      -47.85650000     -32.67210000     -72.77640000
C      -48.04470000     -31.36170000     -72.40480000
C      -47.70920000     -30.33410000     -73.32940000
C      -47.24320000     -30.72450000     -74.55880000
H      -46.31180000     -32.23630000     -75.74820000
H      -48.21400000     -33.46160000     -72.14530000
H      -48.00900000     -29.28740000     -73.15300000
H      -47.08500000     -29.97410000     -75.32250000
C      -48.50460000     -31.02640000     -71.04350000
H      -48.92290000     -31.94390000     -70.53570000
H      -49.33400000     -30.15000000     -71.06110000
C      -47.09060000     -34.53250000     -74.25560000
H      -48.12180000     -34.94170000     -74.05160000
H      -46.92970000     -34.65690000     -75.33460000
S      -47.27490000     -30.20010000     -69.93790000
S      -45.83300000     -35.38220000     -73.27470000
C      -46.47300000     -31.68130000     -69.11810000
H      -46.43300000     -31.39490000     -68.10900000
H      -47.21080000     -32.51910000     -69.16800000
C      -44.30580000     -34.37420000     -73.77380000
H      -44.62950000     -33.67130000     -74.61600000
H      -43.52000000     -34.98830000     -74.12570000
C      -43.72550000     -33.43470000     -72.66760000
H      -42.91520000     -32.85220000     -73.14070000
H      -44.40320000     -32.63040000     -72.26020000
C      -45.20810000     -32.03470000     -69.79910000
H      -44.44980000     -31.23130000     -69.82090000
H      -45.37660000     -32.17160000     -70.81370000
C      -44.48330000     -33.28980000     -69.30550000
C      -44.44450000     -33.69630000     -67.98590000
C      -43.61660000     -34.16050000     -70.12830000
H      -44.95520000     -33.27340000     -67.11170000
C      -43.09280000     -35.20950000     -69.36020000
C      -43.21270000     -34.25630000     -71.53170000
C      -42.44510000     -35.31040000     -71.78930000
S      -43.51640000     -35.14320000     -67.72840000
S      -41.93350000     -36.13450000     -70.28940000
H      -41.96560000     -35.51590000     -72.71120000
