40
Properties=species:S:1:pos:R:3 #=T CELL(abcABC):=T 1.889726e+02=T 90.00000=T Traj:=T positionsangstrom=T Step:=T 0=T Bead:=T pbc="F F F"
C      -42.13940000     -34.82550000     -70.91200000
C      -42.87750000     -36.00220000     -71.05680000
C      -43.89330000     -36.32930000     -70.12600000
C      -44.16020000     -35.46520000     -69.06540000
C      -43.39680000     -34.31110000     -68.92430000
C      -42.39880000     -33.97460000     -69.86890000
H      -41.37070000     -34.59760000     -71.65810000
H      -44.48120000     -37.30060000     -70.30450000
H      -43.63930000     -33.60730000     -68.12120000
H      -41.85970000     -33.06130000     -69.66540000
C      -45.24950000     -35.79340000     -68.07940000
H      -45.04620000     -35.30660000     -67.10670000
H      -45.35270000     -36.87730000     -67.85360000
C      -42.74440000     -36.83050000     -72.31260000
H      -41.91930000     -36.64440000     -73.00380000
H      -42.79510000     -37.90630000     -72.17870000
S      -46.84310000     -35.22460000     -68.83190000
S      -44.31920000     -36.38070000     -73.28790000
C      -46.42960000     -33.52010000     -69.12400000
H      -46.31860000     -32.91860000     -68.21820000
H      -45.52390000     -33.40290000     -69.71380000
C      -44.35250000     -34.50180000     -73.41470000
H      -44.15200000     -34.30850000     -74.49830000
H      -43.44940000     -34.10610000     -72.97660000
C      -45.57740000     -34.01320000     -72.76070000
H      -46.43040000     -34.48330000     -73.22480000
H      -45.56020000     -34.27440000     -71.67570000
C      -47.55160000     -32.87050000     -69.92170000
H      -48.39830000     -32.70460000     -69.34300000
H      -47.94060000     -33.66060000     -70.57170000
C      -47.13510000     -31.63120000     -70.69560000
C      -47.56380000     -30.35090000     -70.29050000
C      -46.37670000     -31.62480000     -71.97450000
H      -48.01210000     -30.06640000     -69.34270000
C      -46.31630000     -30.31140000     -72.37230000
C      -45.77490000     -32.52480000     -72.92190000
C      -45.19530000     -31.86850000     -74.00640000
S      -47.12790000     -29.10390000     -71.46820000
S      -45.60180000     -30.09300000     -73.97350000
H      -44.75580000     -32.26770000     -74.84510000
