40
Properties=species:S:1:pos:R:3 #=T CELL(abcABC):=T 1.889726e+02=T 90.00000=T Traj:=T positionsangstrom=T Step:=T 0=T Bead:=T pbc="F F F"
C      -47.01340000     -31.86400000     -74.70730000
C      -47.24720000     -32.71220000     -73.57480000
C      -47.59310000     -32.07830000     -72.41370000
C      -47.65310000     -30.67160000     -72.32830000
C      -47.48740000     -29.89980000     -73.50440000
C      -47.19890000     -30.52050000     -74.71470000
H      -46.78610000     -32.30640000     -75.66760000
H      -48.03770000     -32.77130000     -71.66360000
H      -47.72290000     -28.78220000     -73.41780000
H      -47.16660000     -29.95620000     -75.57440000
C      -47.87590000     -30.04430000     -70.96040000
H      -48.49830000     -30.67010000     -70.23110000
H      -48.26750000     -29.08010000     -71.23650000
C      -47.21850000     -34.14160000     -73.86430000
H      -48.10280000     -34.65840000     -73.55000000
H      -47.28510000     -34.25890000     -74.94890000
S      -46.27920000     -29.75220000     -70.16900000
S      -45.75460000     -35.09960000     -73.03890000
C      -45.92800000     -31.35320000     -69.43040000
H      -45.41960000     -31.18750000     -68.46980000
H      -46.84340000     -31.92060000     -69.21030000
C      -44.27530000     -34.40190000     -73.82180000
H      -44.58270000     -33.63400000     -74.47910000
H      -43.62890000     -35.12540000     -74.38360000
C      -43.31000000     -33.83260000     -72.70680000
H      -42.34240000     -33.69120000     -73.12240000
H      -43.69270000     -32.89420000     -72.35750000
C      -45.00260000     -32.20670000     -70.20940000
H      -43.91860000     -31.78410000     -70.17300000
H      -45.36090000     -32.33900000     -71.17290000
C      -44.68350000     -33.59160000     -69.62360000
C      -45.03520000     -33.94540000     -68.36240000
C      -43.83400000     -34.62100000     -70.23840000
H      -45.53400000     -33.23330000     -67.70850000
C      -43.65080000     -35.73370000     -69.39960000
C      -43.14570000     -34.79130000     -71.51070000
C      -42.47190000     -35.95550000     -71.60480000
S      -44.39600000     -35.48190000     -67.79620000
S      -42.59130000     -36.88740000     -70.08450000
H      -41.84670000     -36.38810000     -72.35570000
