40
Properties=species:S:1:pos:R:3 #=T CELL(abcABC):=T 1.889726e+02=T 90.00000=T Traj:=T positionsangstrom=T Step:=T 0=T Bead:=T pbc="F F F"
C      -46.84630000     -31.79960000     -74.72390000
C      -47.35160000     -32.66990000     -73.74000000
C      -47.70220000     -32.05930000     -72.51600000
C      -47.63680000     -30.66020000     -72.32700000
C      -47.22670000     -29.84300000     -73.38980000
C      -46.83360000     -30.39050000     -74.58090000
H      -46.45460000     -32.37700000     -75.56310000
H      -47.92670000     -32.62860000     -71.66260000
H      -47.15270000     -28.76020000     -73.27780000
H      -46.46550000     -29.76520000     -75.37360000
C      -47.91110000     -29.97280000     -71.05700000
H      -48.38940000     -30.60490000     -70.27600000
H      -48.44560000     -29.07490000     -71.12140000
C      -47.37630000     -34.18020000     -73.76460000
H      -48.33630000     -34.50470000     -73.25650000
H      -47.27270000     -34.55470000     -74.76840000
S      -46.24670000     -29.71430000     -70.14450000
S      -45.86380000     -34.97450000     -72.85840000
C      -45.90400000     -31.44610000     -69.35660000
H      -45.34720000     -31.30740000     -68.43130000
H      -46.85470000     -31.89490000     -69.06920000
C      -44.39610000     -34.27420000     -73.76240000
H      -44.80180000     -33.36660000     -74.20960000
H      -44.23670000     -34.98950000     -74.57520000
C      -43.31290000     -33.88670000     -72.79040000
H      -42.32320000     -33.82380000     -73.36680000
H      -43.53800000     -32.87070000     -72.45480000
C      -45.19660000     -32.34060000     -70.33170000
H      -44.33540000     -31.79160000     -70.75380000
H      -45.84720000     -32.51620000     -71.13460000
C      -44.71470000     -33.66700000     -69.69320000
C      -45.09540000     -34.01090000     -68.40930000
C      -43.85930000     -34.64560000     -70.33750000
H      -45.73740000     -33.41090000     -67.83280000
C      -43.54280000     -35.71080000     -69.39290000
C      -43.11040000     -34.85860000     -71.59760000
C      -42.35380000     -35.98360000     -71.57780000
S      -44.46500000     -35.59270000     -67.87070000
S      -42.53200000     -36.92670000     -70.08010000
H      -41.84680000     -36.44270000     -72.44020000
