40
Properties=species:S:1:pos:R:3 #=T CELL(abcABC):=T 1.889726e+02=T 90.00000=T Traj:=T positionsangstrom=T Step:=T 0=T Bead:=T pbc="F F F"
C      -46.40210000     -31.69350000     -74.61920000
C      -47.09640000     -32.54330000     -73.72050000
C      -47.54540000     -31.91340000     -72.53920000
C      -47.23890000     -30.55990000     -72.25800000
C      -46.60210000     -29.73930000     -73.18550000
C      -46.17150000     -30.34090000     -74.41080000
H      -46.04070000     -32.05690000     -75.56820000
H      -47.92930000     -32.57430000     -71.65170000
H      -46.30560000     -28.69190000     -72.88290000
H      -45.70570000     -29.84140000     -75.22830000
C      -47.69640000     -29.86670000     -71.03610000
H      -48.60580000     -30.25330000     -70.53860000
H      -47.93110000     -28.84910000     -71.16220000
C      -47.36230000     -34.02670000     -74.07720000
H      -48.37400000     -34.39800000     -73.84400000
H      -47.14610000     -34.08350000     -75.16100000
S      -46.24830000     -29.78750000     -69.86480000
S      -46.22970000     -34.96130000     -73.03360000
C      -46.07320000     -31.47170000     -69.19300000
H      -45.83030000     -31.44790000     -68.10640000
H      -47.09970000     -31.93510000     -69.22980000
C      -44.55220000     -34.62450000     -73.73430000
H      -44.78390000     -34.16350000     -74.68700000
H      -43.89890000     -35.47850000     -73.99770000
C      -43.63820000     -33.79360000     -72.75140000
H      -42.78780000     -33.39040000     -73.16460000
H      -44.16570000     -32.91610000     -72.33160000
C      -45.06730000     -32.32560000     -69.96140000
H      -44.14070000     -31.63380000     -70.16310000
H      -45.53640000     -32.42500000     -70.95660000
C      -44.73340000     -33.67140000     -69.50410000
C      -45.08210000     -34.19840000     -68.26220000
C      -43.96680000     -34.65170000     -70.26230000
H      -45.62370000     -33.66650000     -67.48400000
C      -43.61460000     -35.73210000     -69.50210000
C      -43.41730000     -34.71320000     -71.60460000
C      -42.73460000     -35.85160000     -71.80240000
S      -44.44860000     -35.78740000     -67.98160000
S      -42.73240000     -36.95120000     -70.44170000
H      -42.26120000     -36.12350000     -72.72040000
