40
Properties=species:S:1:pos:R:3 #=T CELL(abcABC):=T 1.889726e+02=T 90.00000=T Traj:=T positionsangstrom=T Step:=T 0=T Bead:=T pbc="F F F"
C      -46.83040000     -34.25770000     -74.45900000
C      -45.41780000     -34.17580000     -74.36200000
C      -44.70280000     -35.15060000     -73.64300000
C      -45.37710000     -36.11740000     -72.86520000
C      -46.81590000     -36.08290000     -72.77540000
C      -47.45280000     -35.19830000     -73.64400000
H      -47.35350000     -33.66570000     -75.13310000
H      -43.57130000     -35.28430000     -73.73150000
H      -47.28960000     -36.88150000     -72.22970000
H      -48.53950000     -35.22870000     -73.58340000
C      -44.63870000     -37.22860000     -72.06390000
H      -44.08720000     -37.89530000     -72.72010000
H      -45.35620000     -37.75040000     -71.49630000
C      -44.60480000     -33.29760000     -75.30770000
H      -44.09950000     -33.90690000     -76.03100000
H      -45.26010000     -32.73200000     -75.94380000
S      -43.45570000     -36.53070000     -70.90750000
S      -43.47440000     -32.17850000     -74.45120000
C      -44.63660000     -35.44450000     -69.95730000
H      -45.37170000     -35.02840000     -70.52580000
H      -45.02820000     -36.03890000     -69.10620000
C      -44.68120000     -31.34840000     -73.33090000
H      -45.67890000     -31.39640000     -73.65230000
H      -44.41460000     -30.30990000     -73.37950000
C      -44.36950000     -31.93170000     -71.89440000
H      -44.26390000     -32.95040000     -71.92260000
H      -43.35330000     -31.59740000     -71.68430000
C      -43.84650000     -34.21730000     -69.37150000
H      -43.17320000     -33.85190000     -70.13450000
H      -43.12830000     -34.51260000     -68.51410000
C      -44.85440000     -33.20490000     -68.84940000
C      -45.37770000     -33.37990000     -67.63080000
C      -45.47780000     -32.13490000     -69.57570000
H      -45.21440000     -34.17860000     -66.91530000
C      -46.46500000     -31.49470000     -68.76120000
C      -45.37320000     -31.45500000     -70.85520000
C      -46.19150000     -30.37810000     -71.00430000
S      -46.66110000     -32.20190000     -67.18580000
S      -47.17100000     -30.12590000     -69.56290000
H      -46.29680000     -29.80140000     -71.88530000
