40
Properties=species:S:1:pos:R:3 #=T CELL(abcABC):=T 1.889726e+02=T 90.00000=T Traj:=T positionsangstrom=T Step:=T 0=T Bead:=T pbc="F F F"
C      -46.47350000     -31.43790000     -74.64320000
C      -47.19740000     -32.19560000     -73.66160000
C      -47.40240000     -31.64950000     -72.43810000
C      -47.06240000     -30.39390000     -72.01100000
C      -46.18000000     -29.74720000     -72.89580000
C      -45.91250000     -30.22510000     -74.21850000
H      -46.30150000     -31.75140000     -75.60130000
H      -48.09790000     -32.23110000     -71.79870000
H      -45.81690000     -28.72150000     -72.67260000
H      -45.36300000     -29.71040000     -74.98180000
C      -47.43340000     -29.84640000     -70.62110000
H      -48.20020000     -30.48420000     -70.22060000
H      -47.58300000     -28.78570000     -70.73730000
C      -47.64330000     -33.65890000     -73.87810000
H      -48.30360000     -33.93270000     -73.03260000
H      -48.10280000     -33.76090000     -74.89420000
S      -46.12480000     -29.94110000     -69.32610000
S      -46.30340000     -35.00300000     -73.96770000
C      -46.06400000     -31.73710000     -69.01490000
H      -45.65600000     -31.91210000     -68.00630000
H      -47.08720000     -32.16220000     -69.10160000
C      -44.69820000     -34.10770000     -74.09680000
H      -44.73370000     -33.17930000     -74.71640000
H      -44.04140000     -34.76620000     -74.69670000
C      -43.96240000     -33.76020000     -72.75470000
H      -43.04990000     -33.21750000     -72.93600000
H      -44.56540000     -33.05540000     -72.23000000
C      -45.28870000     -32.56810000     -70.04290000
H      -44.42420000     -32.10390000     -70.51880000
H      -45.95010000     -32.88430000     -70.92160000
C      -44.80940000     -33.84870000     -69.45400000
C      -45.04520000     -34.29530000     -68.16620000
C      -44.08140000     -34.79890000     -70.27680000
H      -45.49670000     -33.79930000     -67.25230000
C      -43.66790000     -35.88490000     -69.56200000
C      -43.71550000     -34.85620000     -71.73230000
C      -42.87410000     -35.96230000     -71.91420000
S      -44.23280000     -35.81240000     -67.94440000
S      -42.77190000     -37.05490000     -70.52610000
H      -42.42260000     -36.02030000     -72.89320000
