40
Properties=species:S:1:pos:R:3 #=T CELL(abcABC):=T 1.889726e+02=T 90.00000=T Traj:=T positionsangstrom=T Step:=T 0=T Bead:=T pbc="F F F"
C      -42.44300000     -34.00710000     -72.59140000
C      -43.08680000     -35.30270000     -72.59420000
C      -43.13950000     -35.96870000     -71.35880000
C      -42.72250000     -35.49200000     -70.10900000
C      -42.08060000     -34.18930000     -70.16190000
C      -41.98320000     -33.47250000     -71.37020000
H      -42.25820000     -33.51910000     -73.57030000
H      -43.64010000     -36.92970000     -71.31900000
H      -41.73500000     -33.62530000     -69.24240000
H      -41.40640000     -32.49880000     -71.43040000
C      -43.39190000     -36.05230000     -68.88890000
H      -43.03590000     -35.41180000     -68.12450000
H      -43.04400000     -37.06940000     -68.65750000
C      -43.46990000     -35.88760000     -73.98270000
H      -42.89640000     -35.24930000     -74.76940000
H      -43.24510000     -36.92580000     -74.12620000
S      -45.22890000     -35.87870000     -68.96130000
S      -45.22640000     -35.79170000     -74.54900000
C      -45.50510000     -34.10690000     -69.00910000
H      -45.28750000     -33.73890000     -67.98020000
H      -44.80770000     -33.66360000     -69.70930000
C      -45.55330000     -33.97280000     -74.08530000
H      -46.29090000     -33.61930000     -74.76590000
H      -44.62980000     -33.43220000     -74.25720000
C      -46.10300000     -33.78330000     -72.68250000
H      -47.02430000     -34.32570000     -72.77500000
H      -45.43480000     -34.28920000     -71.99530000
C      -47.05220000     -33.83810000     -69.46720000
H      -47.76700000     -34.09630000     -68.66340000
H      -47.26500000     -34.51960000     -70.21240000
C      -47.19160000     -32.40310000     -69.79250000
C      -47.60590000     -31.45620000     -68.84600000
C      -46.88500000     -31.84090000     -71.07090000
H      -47.75000000     -31.62550000     -67.79670000
C      -47.16290000     -30.40330000     -71.08620000
C      -46.30240000     -32.30780000     -72.29290000
C      -45.94750000     -31.28590000     -73.13420000
S      -47.60770000     -29.83940000     -69.42080000
S      -46.52050000     -29.70810000     -72.58120000
H      -45.44460000     -31.38500000     -74.14310000
