40
Properties=species:S:1:pos:R:3 #=T CELL(abcABC):=T 1.889726e+02=T 90.00000=T Traj:=T positionsangstrom=T Step:=T 0=T Bead:=T pbc="F F F"
C      -42.53610000     -33.89270000     -72.90840000
C      -43.02000000     -35.24090000     -72.99480000
C      -43.27390000     -35.85950000     -71.78700000
C      -43.15320000     -35.27430000     -70.52320000
C      -42.62540000     -33.97650000     -70.45040000
C      -42.39290000     -33.28980000     -71.62210000
H      -42.41990000     -33.29620000     -73.81360000
H      -43.74950000     -36.84040000     -71.77180000
H      -42.58890000     -33.50760000     -69.46710000
H      -42.06040000     -32.22660000     -71.53130000
C      -43.37860000     -36.10390000     -69.28670000
H      -42.73410000     -35.79000000     -68.51090000
H      -43.16150000     -37.14490000     -69.56510000
C      -43.35120000     -35.82110000     -74.35110000
H      -42.75810000     -35.46610000     -75.22720000
H      -43.27540000     -36.87750000     -74.40360000
S      -45.22650000     -36.19580000     -68.71990000
S      -45.30280000     -35.56720000     -74.57510000
C      -45.71010000     -34.37280000     -68.62510000
H      -45.90620000     -34.15270000     -67.61850000
H      -44.88340000     -33.77340000     -68.89300000
C      -45.66140000     -33.78360000     -74.17240000
H      -46.33730000     -33.34600000     -74.91480000
H      -44.69510000     -33.24700000     -74.09180000
C      -46.25630000     -33.73400000     -72.75980000
H      -47.24060000     -34.23440000     -72.82940000
H      -45.53840000     -34.30870000     -72.11180000
C      -47.04450000     -34.03230000     -69.40310000
H      -47.86260000     -34.40570000     -68.85860000
H      -46.99180000     -34.64500000     -70.23210000
C      -47.12940000     -32.52330000     -69.65640000
C      -47.42780000     -31.63660000     -68.68370000
C      -46.78520000     -31.88780000     -70.94280000
H      -47.73740000     -31.72280000     -67.66830000
C      -46.78590000     -30.51290000     -70.82910000
C      -46.34450000     -32.31010000     -72.27900000
C      -45.99440000     -31.16210000     -73.01940000
S      -47.35730000     -29.92830000     -69.30200000
S      -46.14330000     -29.65050000     -72.18580000
H      -45.80480000     -31.24930000     -74.13470000
