40
Properties=species:S:1:pos:R:3 #=T CELL(abcABC):=T 1.889726e+02=T 90.00000=T Traj:=T positionsangstrom=T Step:=T 0=T Bead:=T pbc="F F F"
C      -42.68680000     -35.27260000     -74.20220000
C      -42.49920000     -34.48640000     -73.03040000
C      -42.76160000     -33.13970000     -73.07400000
C      -43.42880000     -32.63690000     -74.15390000
C      -43.63350000     -33.35060000     -75.32480000
C      -43.15980000     -34.65130000     -75.34460000
H      -42.40470000     -36.38190000     -74.20280000
H      -42.36590000     -32.59700000     -72.16030000
H      -44.15850000     -32.83300000     -76.07280000
H      -43.23140000     -35.13640000     -76.31530000
C      -43.86390000     -31.17760000     -74.09730000
H      -44.08360000     -30.97300000     -75.14650000
H      -43.12600000     -30.40580000     -73.81230000
C      -41.88960000     -35.14270000     -71.76730000
H      -40.93810000     -35.59120000     -72.12170000
H      -41.63600000     -34.33700000     -71.08030000
S      -45.23300000     -30.89000000     -72.90230000
S      -42.79790000     -36.39700000     -70.80260000
C      -46.56490000     -32.03570000     -73.53360000
H      -47.37560000     -31.42720000     -73.83640000
H      -46.28510000     -32.55700000     -74.39900000
C      -43.63410000     -35.25030000     -69.62930000
H      -42.95400000     -34.47160000     -69.46320000
H      -43.91350000     -35.77580000     -68.72950000
C      -44.95270000     -34.81340000     -70.28110000
H      -44.57160000     -34.21660000     -71.13850000
H      -45.37750000     -35.69190000     -70.77050000
C      -46.99820000     -33.11920000     -72.51130000
H      -46.14920000     -33.85890000     -72.43620000
H      -47.89750000     -33.59140000     -72.87980000
C      -47.43300000     -32.66720000     -71.11290000
C      -48.47910000     -31.83420000     -70.94200000
C      -47.05240000     -33.25500000     -69.84830000
H      -49.04420000     -31.23010000     -71.62980000
C      -47.73700000     -32.80240000     -68.78060000
C      -45.99450000     -34.15170000     -69.36670000
C      -45.98000000     -34.25450000     -67.98390000
S      -48.99910000     -31.63590000     -69.26000000
S      -47.19770000     -33.25500000     -67.24960000
H      -45.39310000     -34.91400000     -67.40090000
