40
Properties=species:S:1:pos:R:3 #=T CELL(abcABC):=T 1.889726e+02=T 90.00000=T Traj:=T positionsangstrom=T Step:=T 0=T Bead:=T pbc="F F F"
C      -42.48510000     -35.29530000     -74.19580000
C      -42.48860000     -34.56840000     -73.02530000
C      -43.07270000     -33.29230000     -73.02070000
C      -43.69540000     -32.82770000     -74.22820000
C      -43.87810000     -33.66360000     -75.31580000
C      -43.32790000     -34.93640000     -75.28030000
H      -41.89720000     -36.17550000     -74.31820000
H      -43.03490000     -32.74890000     -72.08840000
H      -44.47520000     -33.17940000     -76.12280000
H      -43.44230000     -35.67420000     -76.10210000
C      -44.18370000     -31.38770000     -74.27170000
H      -44.56980000     -31.13230000     -75.27890000
H      -43.33770000     -30.77420000     -74.09920000
C      -41.83090000     -35.10560000     -71.77560000
H      -40.83240000     -35.48470000     -71.82650000
H      -41.73900000     -34.27730000     -71.08160000
S      -45.48340000     -30.85940000     -73.02500000
S      -42.81950000     -36.55580000     -70.91360000
C      -46.75860000     -32.04230000     -73.49690000
H      -47.72130000     -31.51290000     -73.75880000
H      -46.44610000     -32.54490000     -74.37400000
C      -43.86300000     -35.67450000     -69.64850000
H      -43.19610000     -35.21620000     -68.88690000
H      -44.37100000     -36.38200000     -69.02220000
C      -44.84580000     -34.74240000     -70.31090000
H      -44.20860000     -34.13400000     -70.95780000
H      -45.57040000     -35.28500000     -70.96340000
C      -47.05500000     -33.07910000     -72.42940000
H      -46.24140000     -33.82250000     -72.35990000
H      -47.88260000     -33.83050000     -72.80880000
C      -47.31390000     -32.53420000     -71.05260000
C      -48.40140000     -31.68310000     -70.83230000
C      -46.76120000     -32.97780000     -69.82230000
H      -49.11030000     -31.13320000     -71.55930000
C      -47.48690000     -32.47050000     -68.69180000
C      -45.75930000     -33.91660000     -69.41890000
C      -45.90500000     -34.27090000     -68.08320000
S      -48.71250000     -31.36280000     -69.14680000
S      -46.99720000     -33.16730000     -67.17210000
H      -45.33940000     -34.98980000     -67.61880000
