40
Properties=species:S:1:pos:R:3 #=T CELL(abcABC):=T 1.889726e+02=T 90.00000=T Traj:=T positionsangstrom=T Step:=T 0=T Bead:=T pbc="F F F"
C      -43.13810000     -35.57800000     -73.97700000
C      -42.86190000     -34.63740000     -72.99780000
C      -43.09180000     -33.27780000     -73.20320000
C      -43.78230000     -32.90820000     -74.32570000
C      -44.07420000     -33.86970000     -75.33180000
C      -43.73230000     -35.16400000     -75.12780000
H      -42.87020000     -36.56280000     -73.72100000
H      -42.85470000     -32.51050000     -72.44890000
H      -44.49510000     -33.57270000     -76.27450000
H      -43.99600000     -35.92060000     -75.82550000
C      -44.22330000     -31.47020000     -74.45250000
H      -44.66100000     -31.20800000     -75.46320000
H      -43.45910000     -30.77810000     -74.21070000
C      -42.01230000     -35.09070000     -71.76720000
H      -40.91750000     -35.25350000     -72.08000000
H      -41.99310000     -34.36220000     -70.89180000
S      -45.51400000     -30.94860000     -73.17730000
S      -42.86280000     -36.60990000     -70.99560000
C      -46.86270000     -32.07140000     -73.46470000
H      -47.75720000     -31.63100000     -73.71730000
H      -46.57730000     -32.51560000     -74.40200000
C      -44.03320000     -35.83800000     -69.79810000
H      -43.45380000     -35.15280000     -69.16470000
H      -44.34660000     -36.60920000     -69.15600000
C      -45.29090000     -35.05360000     -70.38280000
H      -44.90270000     -34.48330000     -71.26370000
H      -46.10850000     -35.65000000     -70.67430000
C      -47.12640000     -33.12990000     -72.39650000
H      -46.31720000     -33.92120000     -72.34500000
H      -47.88700000     -33.84910000     -72.73970000
C      -47.38910000     -32.59440000     -70.97920000
C      -48.32810000     -31.60430000     -70.68340000
C      -46.60760000     -32.89190000     -69.78140000
H      -49.05070000     -31.20070000     -71.35270000
C      -46.95470000     -32.16590000     -68.71080000
C      -45.80670000     -34.04250000     -69.37560000
C      -45.59490000     -34.09530000     -68.02470000
S      -48.35120000     -31.14690000     -69.01840000
S      -46.50680000     -32.80420000     -67.11390000
H      -45.09170000     -34.88720000     -67.41010000
