40
Properties=species:S:1:pos:R:3 #=T CELL(abcABC):=T 1.889726e+02=T 90.00000=T Traj:=T positionsangstrom=T Step:=T 0=T Bead:=T pbc="F F F"
C      -43.78450000     -35.79580000     -74.06320000
C      -43.21350000     -35.04230000     -73.02290000
C      -43.23320000     -33.66640000     -73.07860000
C      -43.93570000     -33.01250000     -74.12910000
C      -44.54760000     -33.77090000     -75.13660000
C      -44.41920000     -35.14980000     -75.11350000
H      -43.78760000     -36.88910000     -74.01400000
H      -42.71060000     -33.09780000     -72.36390000
H      -44.93590000     -33.12760000     -75.98130000
H      -44.85450000     -35.80390000     -75.89550000
C      -44.03430000     -31.52250000     -74.06330000
H      -43.95120000     -30.97840000     -75.02480000
H      -43.30610000     -31.06840000     -73.32180000
C      -42.30620000     -35.78890000     -72.06890000
H      -41.47340000     -36.30220000     -72.60940000
H      -41.94620000     -35.01800000     -71.44990000
S      -45.70720000     -31.01090000     -73.35440000
S      -43.22810000     -36.98720000     -70.91640000
C      -46.87100000     -32.44680000     -73.49650000
H      -47.80270000     -31.94550000     -73.81050000
H      -46.60180000     -33.02310000     -74.37710000
C      -43.88110000     -35.78990000     -69.68870000
H      -43.03660000     -35.24720000     -69.22600000
H      -44.25760000     -36.35150000     -68.74950000
C      -45.00830000     -34.92140000     -70.24590000
H      -44.55540000     -34.28480000     -71.10480000
H      -45.79600000     -35.60970000     -70.62080000
C      -46.99750000     -33.29710000     -72.20880000
H      -46.36350000     -34.17860000     -72.11470000
H      -47.94490000     -33.68390000     -72.34410000
C      -47.08660000     -32.43820000     -70.98320000
C      -48.04760000     -31.41720000     -70.78830000
C      -46.38570000     -32.81820000     -69.78080000
H      -48.72960000     -30.97770000     -71.54490000
C      -46.72480000     -31.90920000     -68.75810000
C      -45.53580000     -33.87950000     -69.25570000
C      -45.39470000     -33.83800000     -67.89730000
S      -47.91690000     -30.70520000     -69.21450000
S      -46.19370000     -32.36140000     -67.23400000
H      -44.77610000     -34.46570000     -67.34130000
