40
Properties=species:S:1:pos:R:3 #=T CELL(abcABC):=T 1.889726e+02=T 90.00000=T Traj:=T positionsangstrom=T Step:=T 0=T Bead:=T pbc="F F F"
C      -46.00530000     -30.34640000     -73.65850000
C      -46.86510000     -31.38540000     -73.30670000
C      -47.16400000     -31.57850000     -71.97610000
C      -46.73480000     -30.65060000     -70.99750000
C      -45.91380000     -29.56260000     -71.35990000
C      -45.45870000     -29.43500000     -72.72480000
H      -45.72320000     -30.11180000     -74.72750000
H      -47.77870000     -32.44830000     -71.75390000
H      -45.66970000     -28.86450000     -70.61130000
H      -44.73360000     -28.72360000     -72.96630000
C      -47.13680000     -30.83020000     -69.57770000
H      -47.42080000     -31.85650000     -69.40950000
H      -48.03230000     -30.19880000     -69.30890000
C      -47.34630000     -32.23200000     -74.44810000
H      -48.43260000     -32.43940000     -74.18000000
H      -47.39260000     -31.66400000     -75.37530000
S      -45.79380000     -30.53800000     -68.28990000
S      -46.49030000     -33.88200000     -74.73440000
C      -44.99230000     -32.23220000     -68.17460000
H      -44.15420000     -32.09640000     -67.52650000
H      -45.79020000     -32.95880000     -67.82030000
C      -44.71580000     -33.36740000     -74.29520000
H      -44.70840000     -32.30450000     -74.67040000
H      -44.04070000     -33.91520000     -74.90160000
C      -44.44250000     -33.42210000     -72.84330000
H      -43.68300000     -32.74490000     -72.52630000
H      -45.28790000     -32.96520000     -72.31030000
C      -44.56430000     -32.80300000     -69.49030000
H      -43.66560000     -32.27520000     -69.75240000
H      -45.32040000     -32.48580000     -70.27500000
C      -44.45070000     -34.28170000     -69.48720000
C      -44.25610000     -35.02420000     -68.32400000
C      -44.32550000     -35.00770000     -70.70470000
H      -44.22600000     -34.65690000     -67.28550000
C      -44.14900000     -36.36290000     -70.44460000
C      -44.37910000     -34.78950000     -72.19080000
C      -44.26450000     -35.93730000     -72.87790000
S      -44.10300000     -36.77220000     -68.77320000
S      -44.07250000     -37.38560000     -71.89760000
H      -44.44420000     -35.94900000     -74.01660000
