40
Properties=species:S:1:pos:R:3 #=T CELL(abcABC):=T 1.889726e+02=T 90.00000=T Traj:=T positionsangstrom=T Step:=T 0=T Bead:=T pbc="F F F"
C      -44.68790000     -33.87290000     -69.06250000
C      -45.97410000     -33.31070000     -68.81840000
C      -47.11460000     -33.90710000     -69.23790000
C      -47.14830000     -35.18330000     -69.81330000
C      -45.91100000     -35.84760000     -69.91900000
C      -44.65870000     -35.19180000     -69.60750000
H      -43.80080000     -33.41870000     -68.63450000
H      -48.05760000     -33.50420000     -68.95010000
H      -45.82980000     -36.90720000     -70.17110000
H      -43.71940000     -35.70160000     -69.65460000
C      -48.39450000     -35.81360000     -70.18390000
H      -49.16190000     -35.70250000     -69.47480000
H      -48.32970000     -36.92160000     -70.34270000
C      -46.07610000     -31.98440000     -68.11760000
H      -47.06430000     -31.60700000     -68.23180000
H      -45.80700000     -31.97480000     -66.97710000
S      -48.87820000     -35.23250000     -71.89290000
S      -44.97190000     -30.71160000     -68.91040000
C      -47.41720000     -35.45720000     -72.96500000
H      -46.78160000     -36.26750000     -72.56010000
H      -47.77820000     -35.89630000     -73.92570000
C      -45.87550000     -30.18700000     -70.36630000
H      -45.18430000     -29.35300000     -70.63490000
H      -46.85370000     -29.68400000     -70.13570000
C      -45.88980000     -31.25040000     -71.55160000
H      -46.66060000     -32.04540000     -71.36910000
H      -46.31430000     -30.72870000     -72.45880000
C      -46.74390000     -34.11010000     -73.23050000
H      -47.28670000     -33.34290000     -72.62150000
H      -46.93060000     -33.89140000     -74.31070000
C      -45.22660000     -34.02930000     -73.14360000
C      -44.46300000     -35.04270000     -73.63260000
C      -44.38370000     -32.90730000     -72.63650000
H      -44.89410000     -35.95260000     -73.91080000
C      -42.99330000     -33.13710000     -72.84980000
C      -44.54370000     -31.65990000     -71.99380000
C      -43.39840000     -30.88530000     -71.86060000
S      -42.74820000     -34.70580000     -73.73970000
S      -42.04180000     -31.72710000     -72.53640000
H      -43.41920000     -29.89710000     -71.41890000
