40
Properties=species:S:1:pos:R:3 #=T CELL(abcABC):=T 1.889726e+02=T 90.00000=T Traj:=T positionsangstrom=T Step:=T 0=T Bead:=T pbc="F F F"
C      -45.14110000     -29.32380000     -72.41770000
C      -46.17450000     -30.27590000     -72.48290000
C      -46.91310000     -30.58380000     -71.35720000
C      -46.56890000     -30.06970000     -70.12270000
C      -45.54410000     -29.07730000     -70.04220000
C      -44.89410000     -28.72010000     -71.21400000
H      -44.38840000     -29.28700000     -73.31160000
H      -47.76270000     -31.31100000     -71.41470000
H      -45.45970000     -28.59200000     -69.10100000
H      -43.99360000     -28.02900000     -71.17270000
C      -47.19740000     -30.53360000     -68.82560000
H      -48.17180000     -30.96640000     -69.08150000
H      -47.22840000     -29.66500000     -68.18390000
C      -46.51630000     -30.85640000     -73.87850000
H      -47.53050000     -30.70950000     -74.11940000
H      -45.87790000     -30.25140000     -74.60860000
S      -46.17910000     -31.79740000     -67.87370000
S      -46.05130000     -32.60270000     -73.92610000
C      -46.17570000     -33.32230000     -68.85200000
H      -46.67610000     -34.16180000     -68.36460000
H      -46.69590000     -33.22550000     -69.78130000
C      -44.14880000     -32.63300000     -73.82670000
H      -43.80050000     -31.57760000     -73.87040000
H      -43.74510000     -33.17760000     -74.74690000
C      -43.54790000     -33.35280000     -72.62480000
H      -42.49450000     -33.19810000     -72.52630000
H      -43.93510000     -32.86230000     -71.73550000
C      -44.74530000     -33.77960000     -69.27180000
H      -44.05280000     -33.84610000     -68.45880000
H      -44.29340000     -32.97890000     -69.92040000
C      -44.79430000     -35.19430000     -69.98760000
C      -45.30180000     -36.24950000     -69.26820000
C      -44.38190000     -35.56760000     -71.38000000
H      -45.69720000     -36.24280000     -68.28210000
C      -44.64820000     -36.89150000     -71.64850000
C      -43.85130000     -34.88570000     -72.53650000
C      -43.56780000     -35.77690000     -73.48440000
S      -45.29210000     -37.72360000     -70.16370000
S      -44.25520000     -37.35610000     -73.29940000
H      -43.13530000     -35.55360000     -74.48260000
