40
Properties=species:S:1:pos:R:3 #=T CELL(abcABC):=T 1.889726e+02=T 90.00000=T Traj:=T positionsangstrom=T Step:=T 0=T Bead:=T pbc="F F F"
C      -44.22750000     -29.41260000     -71.60520000
C      -45.47090000     -29.83610000     -72.09040000
C      -46.47760000     -30.19860000     -71.22450000
C      -46.31170000     -30.12570000     -69.82980000
C      -45.06230000     -29.71210000     -69.32850000
C      -44.04000000     -29.31710000     -70.18840000
H      -43.41900000     -29.02380000     -72.23370000
H      -47.36430000     -30.65470000     -71.60430000
H      -44.97390000     -29.72350000     -68.25600000
H      -43.06750000     -29.10060000     -69.82730000
C      -47.47080000     -30.56870000     -69.00430000
H      -48.36780000     -30.72060000     -69.70240000
H      -47.81550000     -29.79070000     -68.31210000
C      -45.56700000     -30.11470000     -73.58960000
H      -46.49430000     -29.66680000     -73.89700000
H      -44.78180000     -29.65250000     -74.13860000
S      -47.13220000     -32.14300000     -68.26700000
S      -45.31910000     -31.95690000     -73.95840000
C      -46.63640000     -33.46320000     -69.54570000
H      -47.53830000     -34.03930000     -69.75300000
H      -46.42820000     -32.86560000     -70.35860000
C      -43.68290000     -32.34040000     -73.24930000
H      -43.14620000     -31.39860000     -72.86610000
H      -43.12010000     -32.89850000     -73.97600000
C      -43.96400000     -33.24960000     -71.98800000
H      -43.20910000     -33.13980000     -71.29190000
H      -44.80140000     -32.89210000     -71.45780000
C      -45.46000000     -34.43910000     -69.08600000
H      -45.71780000     -34.88740000     -68.14960000
H      -44.47340000     -33.82170000     -69.09170000
C      -45.32720000     -35.64960000     -70.00130000
C      -45.74040000     -36.91900000     -69.70240000
C      -44.82230000     -35.69000000     -71.39430000
H      -46.11230000     -37.07010000     -68.70710000
C      -44.85890000     -36.94700000     -71.97000000
C      -44.15960000     -34.72220000     -72.23610000
C      -43.87930000     -35.18630000     -73.49240000
S      -45.58570000     -38.09270000     -70.97040000
S      -44.11690000     -36.97340000     -73.61350000
H      -43.50290000     -34.76300000     -74.36940000
