40
Properties=species:S:1:pos:R:3 #=T CELL(abcABC):=T 1.889726e+02=T 90.00000=T Traj:=T positionsangstrom=T Step:=T 0=T Bead:=T pbc="F F F"
C      -41.67740000     -34.62440000     -71.84800000
C      -42.59450000     -35.16420000     -72.78780000
C      -43.53960000     -36.08500000     -72.30950000
C      -43.62390000     -36.35590000     -70.92910000
C      -42.79290000     -35.70960000     -70.02030000
C      -41.79880000     -34.92510000     -70.47660000
H      -40.96110000     -33.96640000     -72.24540000
H      -44.11260000     -36.69430000     -73.00420000
H      -42.93550000     -35.89580000     -68.90990000
H      -40.98450000     -34.30420000     -69.94090000
C      -44.65880000     -37.36810000     -70.36370000
H      -44.03540000     -38.09030000     -69.74880000
H      -45.06660000     -37.98250000     -71.17790000
C      -42.51180000     -34.85430000     -74.27100000
H      -41.74190000     -34.13590000     -74.51070000
H      -42.35680000     -35.71380000     -74.83410000
S      -46.08940000     -36.80260000     -69.30320000
S      -44.10630000     -34.13430000     -74.83340000
C      -46.07040000     -34.95090000     -69.15540000
H      -46.73660000     -34.68010000     -68.26720000
H      -45.07210000     -34.52600000     -68.94080000
C      -44.46840000     -32.63040000     -73.74880000
H      -44.15520000     -31.77080000     -74.34450000
H      -43.84840000     -32.69310000     -72.88390000
C      -45.97630000     -32.42190000     -73.46020000
H      -46.53240000     -32.21790000     -74.35280000
H      -46.30500000     -33.40150000     -73.15410000
C      -46.58120000     -34.15050000     -70.43280000
H      -47.40620000     -34.78180000     -70.78960000
H      -45.73820000     -34.09550000     -71.15680000
C      -46.87200000     -32.69870000     -70.13860000
C      -47.42580000     -32.34130000     -68.92500000
C      -46.79210000     -31.53570000     -71.02760000
H      -47.78820000     -32.93220000     -68.10330000
C      -47.18280000     -30.36710000     -70.37610000
C      -46.43050000     -31.36180000     -72.43170000
C      -46.34820000     -29.99450000     -72.71500000
S      -47.66340000     -30.62140000     -68.73370000
S      -46.85730000     -28.95550000     -71.35580000
H      -46.30520000     -29.36150000     -73.61280000
