40
Properties=species:S:1:pos:R:3 #=T CELL(abcABC):=T 1.889726e+02=T 90.00000=T Traj:=T positionsangstrom=T Step:=T 0=T Bead:=T pbc="F F F"
C      -41.82010000     -34.60750000     -71.51020000
C      -42.74690000     -34.90840000     -72.51430000
C      -43.79570000     -35.83730000     -72.21750000
C      -43.80070000     -36.46170000     -70.96500000
C      -42.86410000     -36.14220000     -70.01580000
C      -41.88590000     -35.18930000     -70.24670000
H      -41.09000000     -33.73340000     -71.78710000
H      -44.54270000     -35.92610000     -72.98340000
H      -42.84160000     -36.61060000     -69.05330000
H      -41.15280000     -34.93710000     -69.55180000
C      -45.01080000     -37.40530000     -70.68790000
H      -44.70050000     -38.38110000     -70.43060000
H      -45.47310000     -37.54470000     -71.67450000
C      -42.38660000     -34.55440000     -73.92040000
H      -41.45260000     -33.99320000     -73.87980000
H      -42.09280000     -35.46700000     -74.52920000
S      -46.04500000     -36.86260000     -69.21290000
S      -43.74080000     -33.71090000     -74.86650000
C      -45.84090000     -35.01940000     -69.19250000
H      -46.41490000     -34.65500000     -68.31050000
H      -44.81940000     -34.66310000     -69.04540000
C      -44.23230000     -32.59870000     -73.51710000
H      -43.84360000     -31.62410000     -73.62770000
H      -43.79220000     -32.76710000     -72.51670000
C      -45.72040000     -32.60750000     -73.30790000
H      -46.25970000     -32.45940000     -74.24180000
H      -46.08200000     -33.56700000     -72.93320000
C      -46.33610000     -34.15470000     -70.35290000
H      -47.24730000     -34.68750000     -70.84470000
H      -45.70050000     -34.17250000     -71.22530000
C      -46.82520000     -32.67530000     -70.05980000
C      -47.48010000     -32.24790000     -68.91460000
C      -46.73290000     -31.66280000     -71.02510000
H      -47.46250000     -32.79010000     -67.94510000
C      -47.08020000     -30.39860000     -70.46610000
C      -46.30850000     -31.48030000     -72.42920000
C      -46.52630000     -30.23360000     -72.92190000
S      -47.80090000     -30.54700000     -68.92800000
S      -47.14190000     -29.12990000     -71.69460000
H      -46.14960000     -29.95600000     -73.98840000
