40
Properties=species:S:1:pos:R:3 #=T CELL(abcABC):=T 1.889726e+02=T 90.00000=T Traj:=T positionsangstrom=T Step:=T 0=T Bead:=T pbc="F F F"
C      -41.57700000     -34.83250000     -71.33260000
C      -42.39270000     -35.10400000     -72.44610000
C      -43.51120000     -35.91250000     -72.34970000
C      -43.88910000     -36.42880000     -71.12030000
C      -43.08440000     -36.10780000     -70.02050000
C      -41.93000000     -35.39710000     -70.08150000
H      -40.59140000     -34.35060000     -71.48390000
H      -44.10340000     -36.16250000     -73.26740000
H      -43.36490000     -36.46100000     -69.02670000
H      -41.37140000     -35.11990000     -69.13900000
C      -45.19380000     -37.09950000     -70.91570000
H      -45.12950000     -38.26130000     -70.90110000
H      -45.93940000     -36.92190000     -71.72440000
C      -42.09480000     -34.45940000     -73.75630000
H      -41.43110000     -33.62670000     -73.61050000
H      -41.66990000     -35.16390000     -74.43490000
S      -46.03780000     -36.76220000     -69.30460000
S      -43.57070000     -33.70680000     -74.66700000
C      -45.97870000     -34.86990000     -69.04150000
H      -46.63290000     -34.80910000     -68.21990000
H      -44.95600000     -34.63380000     -68.71190000
C      -44.33640000     -32.50560000     -73.49190000
H      -44.08330000     -31.49540000     -73.89250000
H      -43.86600000     -32.72860000     -72.52160000
C      -45.92110000     -32.57380000     -73.48410000
H      -46.27930000     -32.46310000     -74.51680000
H      -46.14570000     -33.66430000     -73.30360000
C      -46.39340000     -34.15560000     -70.29000000
H      -47.31110000     -34.58320000     -70.59630000
H      -45.60540000     -34.34470000     -70.99960000
C      -46.73250000     -32.67690000     -70.05120000
C      -47.19480000     -32.25980000     -68.85350000
C      -46.85930000     -31.69870000     -71.11370000
H      -47.03860000     -32.86150000     -67.93420000
C      -47.30740000     -30.50320000     -70.57830000
C      -46.48770000     -31.48990000     -72.51880000
C      -46.67920000     -30.21320000     -72.97940000
S      -47.73750000     -30.60150000     -68.92420000
S      -47.28790000     -29.15070000     -71.75200000
H      -46.59250000     -29.97940000     -74.09700000
