40
Properties=species:S:1:pos:R:3 #=T CELL(abcABC):=T 1.889726e+02=T 90.00000=T Traj:=T positionsangstrom=T Step:=T 0=T Bead:=T pbc="F F F"
C      -41.27430000     -34.87230000     -71.14770000
C      -42.27510000     -34.80750000     -72.11970000
C      -43.51590000     -35.43210000     -71.95710000
C      -43.80280000     -36.30140000     -70.91240000
C      -42.76420000     -36.41040000     -69.95340000
C      -41.52430000     -35.70460000     -70.04470000
H      -40.30300000     -34.39410000     -71.24610000
H      -44.21210000     -35.53720000     -72.79140000
H      -42.98360000     -36.97750000     -69.04650000
H      -40.76760000     -35.78090000     -69.21420000
C      -45.04920000     -37.13030000     -70.82370000
H      -44.71720000     -38.17710000     -70.82050000
H      -45.48640000     -36.97150000     -71.86960000
C      -41.95260000     -34.13610000     -73.40670000
H      -41.29750000     -33.35280000     -73.22610000
H      -41.50680000     -34.80610000     -74.09320000
S      -46.29120000     -36.90670000     -69.47820000
S      -43.35630000     -33.48690000     -74.49130000
C      -46.51600000     -35.08640000     -69.12100000
H      -47.45210000     -34.94650000     -68.54350000
H      -45.71270000     -34.76790000     -68.51640000
C      -44.22700000     -32.60110000     -73.22430000
H      -44.02320000     -31.54680000     -73.13990000
H      -43.96700000     -32.82710000     -72.18740000
C      -45.75960000     -32.67750000     -73.48140000
H      -45.98760000     -32.36840000     -74.54290000
H      -46.11060000     -33.68160000     -73.32700000
C      -46.57300000     -34.23570000     -70.40640000
H      -47.39070000     -34.55410000     -71.08140000
H      -45.67820000     -34.28520000     -71.01390000
C      -46.80480000     -32.73670000     -70.06260000
C      -47.28990000     -32.16730000     -68.90200000
C      -46.69770000     -31.71130000     -71.16060000
H      -47.57130000     -32.60380000     -67.97440000
C      -47.20960000     -30.46780000     -70.74980000
C      -46.60110000     -31.69920000     -72.61250000
C      -46.93070000     -30.47330000     -73.19850000
S      -47.79400000     -30.44500000     -69.14160000
S      -47.49500000     -29.23950000     -72.01260000
H      -46.79780000     -30.28520000     -74.19950000
