40
Properties=species:S:1:pos:R:3 #=T CELL(abcABC):=T 1.889726e+02=T 90.00000=T Traj:=T positionsangstrom=T Step:=T 0=T Bead:=T pbc="F F F"
C      -41.38240000     -34.84990000     -70.95990000
C      -42.28140000     -34.93450000     -72.00380000
C      -43.44180000     -35.64340000     -71.94910000
C      -43.73780000     -36.45190000     -70.83020000
C      -42.82280000     -36.40460000     -69.76730000
C      -41.58410000     -35.63210000     -69.81040000
H      -40.47200000     -34.23050000     -71.02400000
H      -44.20990000     -35.50560000     -72.73170000
H      -42.99920000     -37.08240000     -68.94890000
H      -40.94160000     -35.71560000     -68.99180000
C      -45.01600000     -37.30880000     -70.85190000
H      -44.83970000     -38.34080000     -70.48310000
H      -45.54410000     -37.46020000     -71.78820000
C      -41.96300000     -33.93830000     -73.17510000
H      -41.32810000     -33.10260000     -72.66920000
H      -41.15870000     -34.42270000     -73.82490000
S      -46.25440000     -36.87550000     -69.48570000
S      -43.16230000     -33.18310000     -74.33790000
C      -46.46470000     -35.14610000     -69.28730000
H      -47.38240000     -35.13400000     -68.71590000
H      -45.64960000     -34.81450000     -68.59150000
C      -44.29440000     -32.38660000     -73.04080000
H      -44.02940000     -31.34440000     -73.08100000
H      -44.08220000     -32.90270000     -72.07890000
C      -45.70640000     -32.70650000     -73.44300000
H      -45.79030000     -32.70270000     -74.53480000
H      -45.98130000     -33.67650000     -73.08520000
C      -46.53520000     -34.23830000     -70.56590000
H      -47.20590000     -34.64990000     -71.35000000
H      -45.56890000     -34.30560000     -71.05310000
C      -47.00190000     -32.81560000     -70.33000000
C      -47.31230000     -32.27600000     -69.09320000
C      -47.02900000     -31.76840000     -71.35420000
H      -47.24500000     -32.60370000     -68.06820000
C      -47.42760000     -30.49710000     -70.88800000
C      -46.56350000     -31.69540000     -72.70250000
C      -46.84720000     -30.45500000     -73.28100000
S      -47.72040000     -30.55450000     -69.13540000
S      -47.58070000     -29.26620000     -72.19370000
H      -46.82550000     -30.26280000     -74.30430000
