40
Properties=species:S:1:pos:R:3 #=T CELL(abcABC):=T 1.889726e+02=T 90.00000=T Traj:=T positionsangstrom=T Step:=T 0=T Bead:=T pbc="F F F"
C      -41.36470000     -34.73960000     -70.61510000
C      -42.11500000     -34.75900000     -71.77460000
C      -43.28550000     -35.52350000     -71.92550000
C      -43.80230000     -36.29480000     -70.87860000
C      -42.98360000     -36.32100000     -69.71510000
C      -41.82370000     -35.55170000     -69.56570000
H      -40.52750000     -33.98820000     -70.53950000
H      -43.78430000     -35.57620000     -72.94670000
H      -43.30820000     -36.98310000     -68.91630000
H      -41.34630000     -35.60930000     -68.66270000
C      -44.99170000     -37.18640000     -71.00340000
H      -44.71430000     -38.23390000     -71.00160000
H      -45.46000000     -36.89210000     -71.97010000
C      -41.62380000     -33.96280000     -72.93130000
H      -40.96250000     -33.17540000     -72.61330000
H      -41.12470000     -34.56940000     -73.63840000
S      -46.13550000     -36.92090000     -69.66290000
S      -43.01150000     -33.17090000     -74.00880000
C      -46.21620000     -35.04690000     -69.34980000
H      -46.96270000     -34.83510000     -68.64760000
H      -45.31820000     -34.56610000     -68.91670000
C      -44.30600000     -32.24390000     -73.17610000
H      -44.04630000     -31.18360000     -73.35740000
H      -44.19170000     -32.31010000     -72.11260000
C      -45.76190000     -32.54050000     -73.62090000
H      -45.87920000     -32.33020000     -74.66040000
H      -45.90440000     -33.65050000     -73.55320000
C      -46.43810000     -34.29780000     -70.74320000
H      -47.32450000     -34.74300000     -71.19360000
H      -45.54550000     -34.40970000     -71.39160000
C      -46.89700000     -32.88930000     -70.46500000
C      -47.18440000     -32.42310000     -69.23280000
C      -47.13980000     -31.84030000     -71.46460000
H      -46.95940000     -32.85060000     -68.22590000
C      -47.66020000     -30.68250000     -70.93580000
C      -46.69200000     -31.68940000     -72.84670000
C      -47.04490000     -30.42370000     -73.33810000
S      -47.84350000     -30.74400000     -69.23690000
S      -47.79050000     -29.39140000     -72.10790000
H      -46.84270000     -30.00880000     -74.34830000
