40
Properties=species:S:1:pos:R:3 #=T CELL(abcABC):=T 1.889726e+02=T 90.00000=T Traj:=T positionsangstrom=T Step:=T 0=T Bead:=T pbc="F F F"
C      -45.33620000     -36.66270000     -74.34620000
C      -44.52120000     -36.16750000     -73.26550000
C      -44.26710000     -34.79780000     -73.09940000
C      -44.88070000     -33.90590000     -73.94740000
C      -45.60390000     -34.42050000     -75.08230000
C      -45.88250000     -35.74930000     -75.20080000
H      -45.55520000     -37.71220000     -74.32680000
H      -43.59810000     -34.41250000     -72.35200000
H      -45.97680000     -33.71610000     -75.81680000
H      -46.43550000     -36.07260000     -76.11700000
C      -44.72400000     -32.40890000     -73.78740000
H      -44.12600000     -32.09380000     -74.58120000
H      -44.31910000     -32.24730000     -72.79770000
C      -44.16960000     -37.10450000     -72.19460000
H      -44.12520000     -38.12980000     -72.54730000
H      -43.16300000     -36.88140000     -71.74810000
S      -46.25510000     -31.47900000     -74.08530000
S      -45.51590000     -37.06120000     -70.78310000
C      -47.50540000     -32.01450000     -72.86640000
H      -48.01350000     -31.00540000     -72.55580000
H      -48.22560000     -32.65710000     -73.40940000
C      -44.84180000     -35.64360000     -69.80210000
H      -44.27450000     -35.00190000     -70.48610000
H      -44.10340000     -35.96630000     -69.04670000
C      -45.93640000     -34.79920000     -69.17740000
H      -46.73890000     -34.63230000     -69.91270000
H      -46.44630000     -35.25410000     -68.30270000
C      -46.92580000     -32.68530000     -71.64530000
H      -46.41960000     -33.66140000     -71.99190000
H      -47.78630000     -33.09870000     -71.03580000
C      -46.12610000     -31.82780000     -70.72960000
C      -45.75320000     -30.51220000     -71.04610000
C      -45.48330000     -32.24580000     -69.49620000
H      -46.03020000     -29.89100000     -71.88000000
C      -44.85240000     -31.20550000     -68.81590000
C      -45.35490000     -33.48110000     -68.70200000
C      -44.61340000     -33.32610000     -67.57880000
S      -44.78070000     -29.77310000     -69.80390000
S      -44.07480000     -31.69230000     -67.36590000
H      -44.46140000     -34.07610000     -66.72510000
