40
Properties=species:S:1:pos:R:3 #=T CELL(abcABC):=T 1.889726e+02=T 90.00000=T Traj:=T positionsangstrom=T Step:=T 0=T Bead:=T pbc="F F F"
C      -41.98090000     -34.05950000     -69.52000000
C      -42.01660000     -33.89560000     -70.96920000
C      -42.65620000     -34.89210000     -71.76480000
C      -43.16880000     -36.00070000     -71.09310000
C      -43.09550000     -36.13800000     -69.70610000
C      -42.52840000     -35.12360000     -68.90820000
H      -41.37330000     -33.35100000     -69.04630000
H      -42.67140000     -34.81150000     -72.84670000
H      -43.51180000     -37.01280000     -69.16220000
H      -42.33700000     -35.34120000     -67.83720000
C      -43.80040000     -37.15960000     -71.86380000
H      -43.33500000     -38.10250000     -71.50230000
H      -43.77560000     -37.14980000     -72.97660000
C      -41.31770000     -32.70360000     -71.56710000
H      -41.36350000     -31.96330000     -70.82690000
H      -40.26310000     -32.86930000     -71.90750000
S      -45.58040000     -37.43250000     -71.31850000
S      -42.26180000     -31.95090000     -72.92410000
C      -46.28950000     -35.83840000     -70.76880000
H      -47.33560000     -36.11470000     -70.72980000
H      -45.94340000     -35.63700000     -69.72930000
C      -43.87130000     -31.55870000     -72.08640000
H      -43.67580000     -30.57180000     -71.66880000
H      -44.05410000     -32.16170000     -71.18130000
C      -44.96930000     -31.64870000     -73.07270000
H      -44.81060000     -31.01390000     -73.97450000
H      -45.10590000     -32.66140000     -73.49720000
C      -46.11130000     -34.53730000     -71.58560000
H      -45.99010000     -34.69650000     -72.68610000
H      -45.12000000     -34.16110000     -71.18840000
C      -47.19360000     -33.51830000     -71.12830000
C      -48.19690000     -33.68050000     -70.21210000
C      -47.15470000     -32.10150000     -71.54430000
H      -48.47670000     -34.58340000     -69.68040000
C      -48.23800000     -31.40410000     -71.00120000
C      -46.31130000     -31.26530000     -72.38190000
C      -46.88910000     -30.01060000     -72.52930000
S      -49.21990000     -32.29660000     -69.92830000
S      -48.43550000     -29.77080000     -71.64880000
H      -46.63130000     -29.10900000     -73.09770000
