40
Properties=species:S:1:pos:R:3 #=T CELL(abcABC):=T 1.889726e+02=T 90.00000=T Traj:=T positionsangstrom=T Step:=T 0=T Bead:=T pbc="F F F"
C      -45.98150000     -36.98370000     -74.10720000
C      -44.84220000     -36.47960000     -73.40580000
C      -44.38660000     -35.15400000     -73.71140000
C      -45.18190000     -34.35220000     -74.53190000
C      -46.25010000     -34.89330000     -75.28590000
C      -46.63760000     -36.25850000     -75.02880000
H      -46.29290000     -37.99410000     -73.84970000
H      -43.52780000     -34.80600000     -73.20600000
H      -46.80730000     -34.30520000     -76.01320000
H      -47.52950000     -36.67090000     -75.42700000
C      -44.76400000     -32.90660000     -74.74840000
H      -44.64070000     -32.67430000     -75.88320000
H      -43.77690000     -32.61460000     -74.24210000
C      -44.44960000     -37.21210000     -72.12740000
H      -44.57110000     -38.32730000     -72.27810000
H      -43.39420000     -36.98850000     -71.84950000
S      -46.01690000     -31.60430000     -74.23100000
S      -45.47140000     -36.76910000     -70.66420000
C      -46.95560000     -32.32550000     -72.90940000
H      -47.67260000     -31.56710000     -72.73440000
H      -47.45160000     -33.24190000     -73.31020000
C      -44.64630000     -35.34810000     -69.89930000
H      -44.34830000     -34.53890000     -70.66890000
H      -43.77340000     -35.60050000     -69.27380000
C      -45.70500000     -34.61990000     -68.99420000
H      -46.68830000     -34.65170000     -69.52460000
H      -45.98660000     -35.23170000     -68.13150000
C      -46.31160000     -32.76190000     -71.61890000
H      -45.57570000     -33.51720000     -71.91220000
H      -47.09630000     -33.27780000     -70.91730000
C      -45.66520000     -31.73200000     -70.70820000
C      -45.32530000     -30.44960000     -71.06610000
C      -45.30000000     -32.02030000     -69.34160000
H      -45.63100000     -29.92650000     -71.93840000
C      -44.81690000     -30.91550000     -68.60220000
C      -45.24200000     -33.26380000     -68.56080000
C      -44.81200000     -33.04700000     -67.25520000
S      -44.76020000     -29.49230000     -69.68650000
S      -44.19750000     -31.37820000     -66.97710000
H      -44.87230000     -33.76740000     -66.38730000
