40
Properties=species:S:1:pos:R:3 #=T CELL(abcABC):=T 1.889726e+02=T 90.00000=T Traj:=T positionsangstrom=T Step:=T 0=T Bead:=T pbc="F F F"
C      -42.04630000     -34.30180000     -68.97670000
C      -41.96980000     -33.92730000     -70.33790000
C      -42.57090000     -34.72140000     -71.30600000
C      -43.37130000     -35.83600000     -70.91340000
C      -43.51840000     -36.13870000     -69.53450000
C      -42.81520000     -35.39300000     -68.62270000
H      -41.53670000     -33.67650000     -68.29010000
H      -42.37150000     -34.54260000     -72.34480000
H      -44.31040000     -36.93950000     -69.19800000
H      -43.05630000     -35.54060000     -67.58890000
C      -43.99750000     -36.58740000     -71.97010000
H      -43.31920000     -37.41890000     -72.26740000
H      -44.15750000     -35.95010000     -72.85900000
C      -41.15230000     -32.72240000     -70.79820000
H      -40.98020000     -32.04090000     -69.96010000
H      -40.20690000     -33.13910000     -71.31680000
S      -45.68450000     -37.41280000     -71.65300000
S      -41.88350000     -31.80260000     -72.16830000
C      -46.86560000     -36.04000000     -71.87100000
H      -47.39880000     -36.16290000     -72.84430000
H      -47.70140000     -36.16160000     -71.20260000
C      -43.77050000     -31.62600000     -71.73480000
H      -43.84170000     -30.74070000     -71.22040000
H      -43.94120000     -32.50340000     -71.03990000
C      -44.70350000     -31.82210000     -72.95130000
H      -44.34180000     -31.37320000     -73.86760000
H      -44.65540000     -32.90930000     -73.17750000
C      -46.29040000     -34.63690000     -71.82880000
H      -45.77470000     -34.29940000     -72.75260000
H      -45.55930000     -34.61400000     -71.05230000
C      -47.35580000     -33.55890000     -71.51290000
C      -48.54040000     -33.80860000     -70.80770000
C      -47.13360000     -32.15710000     -71.81840000
H      -48.79750000     -34.70630000     -70.34760000
C      -48.15430000     -31.36580000     -71.22990000
C      -46.11770000     -31.35460000     -72.54830000
C      -46.53940000     -30.04590000     -72.55170000
S      -49.42700000     -32.29370000     -70.42680000
S      -48.00950000     -29.73050000     -71.68560000
H      -46.12030000     -29.25570000     -73.21030000
