40
Properties=species:S:1:pos:R:3 #=T CELL(abcABC):=T 1.889726e+02=T 90.00000=T Traj:=T positionsangstrom=T Step:=T 0=T Bead:=T pbc="F F F"
C      -42.34120000     -34.31420000     -69.02130000
C      -42.13870000     -33.88140000     -70.37870000
C      -42.72780000     -34.69270000     -71.41310000
C      -43.43720000     -35.85730000     -71.01920000
C      -43.74690000     -36.15090000     -69.62950000
C      -43.22830000     -35.26900000     -68.66770000
H      -41.85330000     -33.76410000     -68.24490000
H      -42.79030000     -34.35270000     -72.44740000
H      -44.40460000     -37.03120000     -69.38590000
H      -43.29080000     -35.54500000     -67.62500000
C      -44.08170000     -36.79010000     -72.09670000
H      -43.38270000     -37.62590000     -72.31180000
H      -44.20730000     -36.30820000     -73.03810000
C      -41.20480000     -32.74390000     -70.59790000
H      -41.09340000     -32.20330000     -69.63550000
H      -40.24080000     -33.12250000     -70.85280000
S      -45.70060000     -37.46680000     -71.63120000
S      -41.86960000     -31.67070000     -71.98020000
C      -46.95340000     -36.12060000     -71.89640000
H      -47.20600000     -36.24910000     -72.96850000
H      -47.82550000     -36.23900000     -71.16540000
C      -43.61120000     -31.58270000     -71.46550000
H      -43.87560000     -30.55310000     -71.10570000
H      -43.85720000     -32.13370000     -70.56480000
C      -44.55180000     -31.76330000     -72.64370000
H      -44.15200000     -31.08650000     -73.38720000
H      -44.50790000     -32.82480000     -73.05370000
C      -46.25060000     -34.78320000     -71.68550000
H      -45.60100000     -34.69630000     -72.57890000
H      -45.69100000     -34.80820000     -70.75450000
C      -47.23190000     -33.62930000     -71.50750000
C      -48.44160000     -33.74450000     -70.80500000
C      -47.02560000     -32.23500000     -71.86210000
H      -48.80550000     -34.53890000     -70.17070000
C      -48.11860000     -31.37630000     -71.53640000
C      -45.93860000     -31.33760000     -72.31750000
C      -46.18620000     -29.97570000     -72.20730000
S      -49.47500000     -32.32400000     -70.83740000
S      -47.84270000     -29.69170000     -71.78520000
H      -45.38320000     -29.21430000     -72.41260000
