40
Properties=species:S:1:pos:R:3 #=T CELL(abcABC):=T 1.889726e+02=T 90.00000=T Traj:=T positionsangstrom=T Step:=T 0=T Bead:=T pbc="F F F"
C      -45.13280000     -33.90050000     -67.47120000
C      -44.39120000     -34.70270000     -68.31630000
C      -45.18730000     -35.47740000     -69.22690000
C      -46.55210000     -35.47520000     -69.31200000
C      -47.27580000     -34.70420000     -68.41960000
C      -46.55270000     -33.90110000     -67.50970000
H      -44.75480000     -33.21430000     -66.73070000
H      -44.76650000     -36.20980000     -69.82750000
H      -48.29490000     -34.47150000     -68.43010000
H      -47.07460000     -33.20290000     -66.83010000
C      -47.20350000     -36.67880000     -70.09100000
H      -48.24700000     -36.50780000     -70.06510000
H      -46.94680000     -37.61130000     -69.57650000
C      -42.87410000     -34.96380000     -68.23100000
H      -42.54670000     -34.73030000     -67.16440000
H      -42.53590000     -36.00240000     -68.52790000
S      -46.50950000     -36.77670000     -71.77100000
S      -41.96560000     -33.64170000     -69.21840000
C      -46.78100000     -35.00120000     -72.34920000
H      -47.74100000     -34.85860000     -72.94910000
H      -46.87730000     -34.35350000     -71.47490000
C      -42.98580000     -33.43820000     -70.73170000
H      -43.19850000     -34.45960000     -71.13540000
H      -42.37990000     -32.83070000     -71.37440000
C      -44.36180000     -32.68090000     -70.65300000
H      -45.14420000     -33.42500000     -70.40650000
H      -44.18880000     -32.06690000     -69.71770000
C      -45.59190000     -34.58120000     -73.24690000
H      -45.46520000     -35.26750000     -74.09450000
H      -44.63370000     -34.62920000     -72.66560000
C      -45.80980000     -33.15410000     -73.70870000
C      -46.52480000     -32.90730000     -74.86330000
C      -45.33670000     -31.96900000     -73.08820000
H      -47.06080000     -33.61970000     -75.58100000
C      -45.69500000     -30.81880000     -73.77520000
C      -44.67850000     -31.75420000     -71.81460000
C      -44.61200000     -30.36970000     -71.63340000
S      -46.77840000     -31.17560000     -75.11810000
S      -45.19870000     -29.31170000     -72.94350000
H      -44.33010000     -29.96410000     -70.70960000
