40
Properties=species:S:1:pos:R:3 #=T CELL(abcABC):=T 1.889726e+02=T 90.00000=T Traj:=T positionsangstrom=T Step:=T 0=T Bead:=T pbc="F F F"
C      -46.33010000     -36.78460000     -73.43880000
C      -45.07130000     -36.48580000     -73.05210000
C      -44.38890000     -35.32900000     -73.69740000
C      -45.14000000     -34.58040000     -74.56980000
C      -46.47260000     -34.88110000     -74.87080000
C      -47.08290000     -36.04930000     -74.38100000
H      -46.91950000     -37.49450000     -72.93520000
H      -43.27610000     -35.18040000     -73.54850000
H      -47.01870000     -34.25000000     -75.58170000
H      -48.20490000     -36.22750000     -74.45070000
C      -44.54640000     -33.31030000     -75.17210000
H      -44.85070000     -33.18370000     -76.28330000
H      -43.40990000     -33.32240000     -75.22930000
C      -44.35880000     -37.38270000     -72.10500000
H      -44.68270000     -38.43650000     -72.22390000
H      -43.29920000     -37.43480000     -72.17330000
S      -45.11530000     -31.64320000     -74.41610000
S      -44.93990000     -37.02970000     -70.34200000
C      -46.58950000     -32.06610000     -73.27160000
H      -47.15970000     -31.10200000     -73.15800000
H      -47.20540000     -32.80470000     -73.68920000
C      -44.40810000     -35.24680000     -70.05260000
H      -44.20170000     -34.71240000     -71.08260000
H      -43.38550000     -35.24530000     -69.68370000
C      -45.45480000     -34.66290000     -69.13500000
H      -46.46800000     -34.82860000     -69.56630000
H      -45.36910000     -35.15440000     -68.14740000
C      -46.18080000     -32.69600000     -71.89750000
H      -45.44500000     -33.51350000     -72.11760000
H      -47.02030000     -33.23820000     -71.48210000
C      -45.65270000     -31.66000000     -70.90080000
C      -45.66130000     -30.30340000     -71.05670000
C      -45.29990000     -32.00300000     -69.52820000
H      -45.99750000     -29.90590000     -72.00040000
C      -45.04780000     -30.87920000     -68.72610000
C      -45.30900000     -33.22160000     -68.77530000
C      -45.14350000     -32.99130000     -67.39230000
S      -45.25290000     -29.36930000     -69.65310000
S      -44.83420000     -31.26920000     -67.02880000
H      -45.07770000     -33.78370000     -66.53890000
