40
Properties=species:S:1:pos:R:3 #=T CELL(abcABC):=T 1.889726e+02=T 90.00000=T Traj:=T positionsangstrom=T Step:=T 0=T Bead:=T pbc="F F F"
C      -43.03910000     -34.11430000     -68.45820000
C      -42.36370000     -34.02070000     -69.72500000
C      -42.68680000     -34.98020000     -70.74820000
C      -43.46120000     -36.10590000     -70.44690000
C      -44.17720000     -36.08640000     -69.26560000
C      -43.83200000     -35.20280000     -68.23600000
H      -42.84480000     -33.37110000     -67.64790000
H      -42.04040000     -34.96960000     -71.66280000
H      -44.79720000     -36.97200000     -69.06810000
H      -44.17740000     -35.53580000     -67.28890000
C      -43.68880000     -37.26260000     -71.48580000
H      -43.62680000     -38.25320000     -70.93970000
H      -42.99640000     -37.31760000     -72.32340000
C      -41.48740000     -32.82880000     -70.02300000
H      -41.69180000     -31.99810000     -69.31240000
H      -40.45320000     -33.14220000     -70.06910000
S      -45.52240000     -37.23270000     -72.10440000
S      -41.71780000     -32.03460000     -71.70570000
C      -46.09240000     -35.51410000     -72.29900000
H      -45.32570000     -34.80950000     -72.69120000
H      -46.94260000     -35.54310000     -73.08540000
C      -43.28260000     -31.24860000     -71.50360000
H      -43.49730000     -30.76650000     -72.48100000
H      -43.40590000     -30.44980000     -70.78240000
C      -44.54440000     -32.09820000     -71.03430000
H      -44.49590000     -33.10820000     -71.33490000
H      -44.45310000     -32.14850000     -69.97390000
C      -46.82410000     -34.81590000     -71.05060000
H      -46.14080000     -34.75970000     -70.18750000
H      -47.60830000     -35.53540000     -70.61780000
C      -47.51250000     -33.58440000     -71.61430000
C      -48.86450000     -33.69420000     -71.97940000
C      -47.04310000     -32.18060000     -71.66770000
H      -49.55190000     -34.53910000     -71.91130000
C      -48.01130000     -31.30260000     -72.18570000
C      -45.83240000     -31.43630000     -71.38440000
C      -45.97880000     -30.09490000     -71.58770000
S      -49.52820000     -32.12700000     -72.69480000
S      -47.52300000     -29.62870000     -72.27630000
H      -45.14470000     -29.36260000     -71.44520000
