40
Properties=species:S:1:pos:R:3 #=T CELL(abcABC):=T 1.889726e+02=T 90.00000=T Traj:=T positionsangstrom=T Step:=T 0=T Bead:=T pbc="F F F"
C      -43.18970000     -34.10770000     -68.39440000
C      -42.45340000     -34.10740000     -69.57200000
C      -42.60510000     -35.18800000     -70.49780000
C      -43.57260000     -36.23960000     -70.26970000
C      -44.16830000     -36.21830000     -68.98600000
C      -43.93550000     -35.22780000     -68.04030000
H      -43.05680000     -33.27830000     -67.72540000
H      -42.14650000     -35.18220000     -71.46400000
H      -45.09680000     -36.88120000     -68.79170000
H      -44.59830000     -35.10080000     -67.18220000
C      -43.86750000     -37.23680000     -71.50400000
H      -43.57170000     -38.28320000     -71.37120000
H      -43.15820000     -36.86080000     -72.27250000
C      -41.48620000     -33.04330000     -69.87630000
H      -41.53560000     -32.26880000     -69.16480000
H      -40.41260000     -33.38310000     -69.77350000
S      -45.60630000     -37.08820000     -71.96870000
S      -41.73300000     -32.37710000     -71.63470000
C      -45.73070000     -35.34260000     -72.45930000
H      -44.83300000     -34.79940000     -72.63520000
H      -46.17220000     -35.40660000     -73.43630000
C      -43.28700000     -31.21050000     -71.53340000
H      -43.28670000     -31.01480000     -72.58610000
H      -42.92970000     -30.30800000     -71.03320000
C      -44.52530000     -31.99100000     -71.08310000
H      -44.50250000     -33.04210000     -71.47700000
H      -44.51770000     -32.06740000     -69.98250000
C      -46.56630000     -34.60760000     -71.37710000
H      -45.87860000     -34.10060000     -70.74450000
H      -47.20620000     -35.23660000     -70.74460000
C      -47.41720000     -33.46520000     -71.89810000
C      -48.74870000     -33.66260000     -72.35270000
C      -47.01390000     -32.10060000     -71.88630000
H      -49.34400000     -34.56790000     -72.68050000
C      -48.08650000     -31.28540000     -72.20080000
C      -45.75790000     -31.33410000     -71.56340000
C      -45.98570000     -29.98760000     -71.61830000
S      -49.54620000     -32.11060000     -72.71710000
S      -47.58010000     -29.57900000     -72.25120000
H      -45.27180000     -29.17210000     -71.44830000
