40
Properties=species:S:1:pos:R:3 #=T CELL(abcABC):=T 1.889726e+02=T 90.00000=T Traj:=T positionsangstrom=T Step:=T 0=T Bead:=T pbc="F F F"
C      -43.20530000     -34.19200000     -68.25860000
C      -42.53630000     -34.21350000     -69.47510000
C      -42.70940000     -35.28300000     -70.37460000
C      -43.68070000     -36.31670000     -70.13670000
C      -44.42330000     -36.22190000     -68.96010000
C      -44.16570000     -35.19710000     -68.06880000
H      -42.95510000     -33.53770000     -67.45610000
H      -42.13840000     -35.16150000     -71.19680000
H      -45.01140000     -37.11290000     -68.63420000
H      -44.68200000     -35.36450000     -67.07170000
C      -43.85810000     -37.38800000     -71.14850000
H      -44.01610000     -38.37890000     -70.80090000
H      -43.07260000     -37.27770000     -71.94970000
C      -41.56280000     -33.17620000     -69.74330000
H      -41.72010000     -32.35030000     -68.97220000
H      -40.49290000     -33.55780000     -69.61290000
S      -45.45780000     -37.15140000     -72.09560000
S      -41.64970000     -32.46690000     -71.43430000
C      -45.69030000     -35.31880000     -72.41620000
H      -44.75530000     -34.67170000     -72.46160000
H      -46.08590000     -35.40710000     -73.42420000
C      -43.12370000     -31.33740000     -71.43570000
H      -43.13890000     -30.82100000     -72.37430000
H      -42.98920000     -30.56020000     -70.64900000
C      -44.55900000     -31.97710000     -71.23410000
H      -44.52450000     -32.97700000     -71.67060000
H      -44.71910000     -32.16360000     -70.15520000
C      -46.64940000     -34.56960000     -71.44930000
H      -45.91070000     -34.28860000     -70.65000000
H      -47.41070000     -35.32450000     -71.16680000
C      -47.36560000     -33.36700000     -71.98520000
C      -48.67350000     -33.54280000     -72.44460000
C      -46.96260000     -31.96150000     -72.05520000
H      -49.20900000     -34.49450000     -72.60640000
C      -48.01960000     -31.17880000     -72.41690000
C      -45.75750000     -31.17660000     -71.65010000
C      -45.98450000     -29.82910000     -71.76800000
S      -49.45530000     -32.04120000     -72.91410000
S      -47.68240000     -29.49010000     -72.22990000
H      -45.39380000     -28.97170000     -71.50440000
