40
Properties=species:S:1:pos:R:3 #=T CELL(abcABC):=T 1.889726e+02=T 90.00000=T Traj:=T positionsangstrom=T Step:=T 0=T Bead:=T pbc="F F F"
C      -43.40060000     -34.20040000     -68.14200000
C      -42.72120000     -34.16520000     -69.39650000
C      -42.84870000     -35.24240000     -70.29390000
C      -43.81830000     -36.22300000     -70.02800000
C      -44.47560000     -36.27620000     -68.75640000
C      -44.30520000     -35.21340000     -67.85640000
H      -43.30100000     -33.28240000     -67.53790000
H      -42.28710000     -35.26480000     -71.14780000
H      -45.30640000     -36.88820000     -68.56880000
H      -44.91290000     -35.16370000     -66.95200000
C      -43.98210000     -37.41340000     -70.96650000
H      -44.06450000     -38.41220000     -70.42550000
H      -43.12000000     -37.56090000     -71.58950000
C      -41.58340000     -33.06360000     -69.68900000
H      -41.67630000     -32.31990000     -68.89400000
H      -40.67350000     -33.46960000     -69.78040000
S      -45.55660000     -37.12150000     -72.16160000
S      -41.70290000     -32.23170000     -71.36500000
C      -45.63370000     -35.21710000     -72.47090000
H      -44.68520000     -34.74130000     -72.45430000
H      -46.05060000     -35.10240000     -73.48490000
C      -43.22550000     -31.26760000     -71.30180000
H      -43.31890000     -30.63230000     -72.21070000
H      -43.19950000     -30.55430000     -70.45740000
C      -44.50720000     -32.17060000     -71.27450000
H      -44.44340000     -32.99710000     -71.96280000
H      -44.66210000     -32.72020000     -70.31390000
C      -46.60910000     -34.62870000     -71.50930000
H      -46.10690000     -34.33890000     -70.57420000
H      -47.40550000     -35.26130000     -71.15100000
C      -47.38120000     -33.44160000     -72.08890000
C      -48.63020000     -33.58260000     -72.68570000
C      -46.96820000     -32.09450000     -72.02400000
H      -49.28390000     -34.40840000     -72.58460000
C      -47.88560000     -31.19430000     -72.52920000
C      -45.74950000     -31.45160000     -71.60940000
C      -45.83060000     -30.10660000     -71.72330000
S      -49.33230000     -31.98550000     -73.07030000
S      -47.37260000     -29.54660000     -72.35400000
H      -45.16800000     -29.30090000     -71.50660000
