40
Properties=species:S:1:pos:R:3 #=T CELL(abcABC):=T 1.889726e+02=T 90.00000=T Traj:=T positionsangstrom=T Step:=T 0=T Bead:=T pbc="F F F"
C      -43.19030000     -29.87900000     -70.76180000
C      -44.43910000     -30.04560000     -71.46090000
C      -45.62160000     -30.52950000     -70.79860000
C      -45.49760000     -30.72360000     -69.41210000
C      -44.23280000     -30.63700000     -68.78240000
C      -43.10120000     -30.24160000     -69.45540000
H      -42.35130000     -29.29540000     -71.29210000
H      -46.61700000     -30.50370000     -71.26080000
H      -44.26290000     -30.69510000     -67.70720000
H      -42.19700000     -30.11610000     -68.82130000
C      -46.67480000     -31.01080000     -68.56500000
H      -47.63690000     -31.00600000     -69.12220000
H      -46.79420000     -30.24800000     -67.82780000
C      -44.34960000     -29.87380000     -73.01650000
H      -45.25490000     -29.55710000     -73.49980000
H      -43.54470000     -29.22960000     -73.32750000
S      -46.82830000     -32.68480000     -67.61370000
S      -44.05290000     -31.57020000     -73.78420000
C      -47.28730000     -33.87390000     -69.03240000
H      -48.29430000     -34.32520000     -68.72320000
H      -47.56050000     -33.29270000     -69.93730000
C      -42.81690000     -32.47850000     -72.51240000
H      -42.37990000     -31.67870000     -71.95300000
H      -42.02750000     -33.02880000     -73.00450000
C      -43.70740000     -33.40670000     -71.65970000
H      -43.24220000     -33.96760000     -70.82680000
H      -44.36340000     -32.76660000     -71.10210000
C      -46.19270000     -34.89540000     -69.31000000
H      -46.28890000     -35.69010000     -68.53830000
H      -45.11740000     -34.49040000     -69.29260000
C      -46.32140000     -35.49410000     -70.67330000
C      -47.35770000     -36.40910000     -70.87980000
C      -45.51620000     -35.42580000     -71.90850000
H      -48.05430000     -36.72060000     -70.05800000
C      -45.98170000     -36.32700000     -72.82130000
C      -44.45950000     -34.56250000     -72.39830000
C      -44.02880000     -34.96880000     -73.63580000
S      -47.35530000     -37.36620000     -72.33340000
S      -44.97160000     -36.30630000     -74.23000000
H      -43.19800000     -34.45390000     -74.14400000
