40
Properties=species:S:1:pos:R:3 #=T CELL(abcABC):=T 1.889726e+02=T 90.00000=T Traj:=T positionsangstrom=T Step:=T 0=T Bead:=T pbc="F F F"
C      -43.80070000     -34.35210000     -68.01720000
C      -42.78240000     -34.26820000     -68.95700000
C      -42.78100000     -35.22780000     -69.92750000
C      -43.84970000     -36.12090000     -70.10850000
C      -44.88590000     -36.13520000     -69.15080000
C      -44.86620000     -35.19850000     -68.14210000
H      -43.86870000     -33.51340000     -67.34810000
H      -41.98490000     -35.08020000     -70.77840000
H      -45.79900000     -36.66680000     -69.41860000
H      -45.65230000     -35.00990000     -67.40190000
C      -43.93920000     -37.01250000     -71.27430000
H      -43.63880000     -37.94970000     -70.88140000
H      -43.33720000     -36.74970000     -72.18010000
C      -41.86220000     -33.09730000     -68.92710000
H      -42.10600000     -32.45020000     -68.20740000
H      -40.90960000     -33.47120000     -68.40800000
S      -45.69200000     -37.18890000     -71.94990000
S      -41.57420000     -32.41460000     -70.61910000
C      -45.96890000     -35.40980000     -72.58390000
H      -45.01790000     -34.95500000     -72.92170000
H      -46.52380000     -35.68080000     -73.48140000
C      -43.14570000     -31.40180000     -70.88620000
H      -43.00470000     -30.60870000     -71.64760000
H      -43.31440000     -30.84260000     -69.92180000
C      -44.43220000     -32.22180000     -71.24560000
H      -44.20380000     -33.04070000     -71.95540000
H      -44.75320000     -32.59350000     -70.27030000
C      -46.79510000     -34.62880000     -71.59000000
H      -46.10730000     -34.43170000     -70.74390000
H      -47.55230000     -35.27370000     -71.17840000
C      -47.37390000     -33.39140000     -72.14140000
C      -48.65180000     -33.42620000     -72.67370000
C      -46.90650000     -32.05850000     -72.21230000
H      -49.20430000     -34.31460000     -72.90740000
C      -47.69280000     -31.14790000     -72.94070000
C      -45.61480000     -31.41600000     -71.75400000
C      -45.61510000     -30.08650000     -71.99540000
S      -49.19380000     -31.87060000     -73.29880000
S      -46.91110000     -29.55330000     -73.02360000
H      -44.78090000     -29.45430000     -71.66670000
