40
Properties=species:S:1:pos:R:3 #=T CELL(abcABC):=T 1.889726e+02=T 90.00000=T Traj:=T positionsangstrom=T Step:=T 0=T Bead:=T pbc="F F F"
C      -42.91190000     -29.57700000     -70.72300000
C      -43.94240000     -29.92930000     -71.54030000
C      -45.16950000     -30.23340000     -70.97090000
C      -45.36020000     -30.39070000     -69.60330000
C      -44.19500000     -30.17140000     -68.78350000
C      -43.01000000     -29.67360000     -69.36310000
H      -41.94780000     -29.25510000     -71.07550000
H      -45.98370000     -30.56410000     -71.59480000
H      -44.33530000     -30.22510000     -67.69050000
H      -42.15850000     -29.50940000     -68.73780000
C      -46.68360000     -30.76070000     -69.01060000
H      -47.36200000     -31.03730000     -69.79980000
H      -47.20890000     -29.99360000     -68.45530000
C      -43.80780000     -29.89460000     -73.02450000
H      -44.33160000     -29.09490000     -73.53400000
H      -42.80960000     -29.73740000     -73.37760000
S      -46.50160000     -32.28910000     -67.93680000
S      -44.39380000     -31.55840000     -73.74290000
C      -46.94450000     -33.64090000     -69.19860000
H      -47.93790000     -33.95420000     -68.95030000
H      -46.89560000     -33.16310000     -70.17230000
C      -43.21610000     -32.72610000     -72.87120000
H      -42.44060000     -32.16280000     -72.40350000
H      -42.72880000     -33.40620000     -73.63310000
C      -43.85350000     -33.59730000     -71.86520000
H      -43.08610000     -34.06820000     -71.31570000
H      -44.51650000     -33.05120000     -71.20990000
C      -45.97010000     -34.84740000     -69.18730000
H      -45.92750000     -35.36640000     -68.22950000
H      -44.92740000     -34.49850000     -69.29920000
C      -46.14740000     -35.79400000     -70.37750000
C      -47.03020000     -36.86970000     -70.30820000
C      -45.71920000     -35.62640000     -71.75740000
H      -47.66930000     -37.22060000     -69.38650000
C      -46.26080000     -36.58230000     -72.65890000
C      -44.76240000     -34.69450000     -72.40760000
C      -44.64800000     -35.12490000     -73.75370000
S      -47.24400000     -37.73530000     -71.79610000
S      -45.58560000     -36.59260000     -74.27290000
H      -44.10210000     -34.59800000     -74.51680000
