40
Properties=species:S:1:pos:R:3 #=T CELL(abcABC):=T 1.889726e+02=T 90.00000=T Traj:=T positionsangstrom=T Step:=T 0=T Bead:=T pbc="F F F"
C      -42.80970000     -29.75720000     -70.85290000
C      -43.93350000     -30.01840000     -71.60900000
C      -45.10380000     -30.34190000     -71.00020000
C      -45.25130000     -30.40260000     -69.60520000
C      -44.14830000     -30.00580000     -68.82460000
C      -42.88620000     -29.71140000     -69.48130000
H      -41.88680000     -29.44050000     -71.23030000
H      -46.07320000     -30.46450000     -71.50100000
H      -44.12400000     -30.02500000     -67.71410000
H      -42.04640000     -29.35420000     -68.88970000
C      -46.53910000     -30.81720000     -68.98340000
H      -47.31820000     -30.91660000     -69.71940000
H      -46.81160000     -30.10340000     -68.21020000
C      -43.88210000     -30.00860000     -73.15960000
H      -44.52010000     -29.19490000     -73.47580000
H      -42.84750000     -29.76040000     -73.53150000
S      -46.40950000     -32.42750000     -67.98210000
S      -44.48250000     -31.51510000     -73.88270000
C      -46.83670000     -33.65850000     -69.25900000
H      -47.89780000     -34.05650000     -69.27310000
H      -46.78160000     -33.16600000     -70.25240000
C      -43.35090000     -32.60270000     -72.80680000
H      -42.58350000     -32.00110000     -72.29110000
H      -42.82230000     -33.26220000     -73.47090000
C      -44.05680000     -33.47190000     -71.78080000
H      -43.21030000     -33.83470000     -71.06380000
H      -44.66540000     -32.90290000     -71.05850000
C      -45.93750000     -34.88950000     -69.08350000
H      -46.11730000     -35.24680000     -68.07140000
H      -44.91290000     -34.61010000     -69.19520000
C      -46.14470000     -35.86050000     -70.27430000
C      -47.02440000     -36.92600000     -70.21950000
C      -45.62610000     -35.69770000     -71.62740000
H      -47.49220000     -37.46780000     -69.31200000
C      -46.20690000     -36.59500000     -72.53290000
C      -44.85030000     -34.66500000     -72.32020000
C      -44.77670000     -34.99920000     -73.67510000
S      -47.22870000     -37.69450000     -71.82650000
S      -45.70520000     -36.45110000     -74.19760000
H      -44.23610000     -34.36230000     -74.35010000
