40
Properties=species:S:1:pos:R:3 #=T CELL(abcABC):=T 1.889726e+02=T 90.00000=T Traj:=T positionsangstrom=T Step:=T 0=T Bead:=T pbc="F F F"
C      -43.00460000     -29.45580000     -71.00660000
C      -44.08480000     -29.84530000     -71.72530000
C      -45.21950000     -30.23880000     -70.96220000
C      -45.23170000     -30.35280000     -69.61080000
C      -43.96090000     -30.22410000     -68.91820000
C      -42.90990000     -29.66660000     -69.62260000
H      -42.09760000     -29.11010000     -71.46330000
H      -46.17240000     -30.64980000     -71.47730000
H      -43.80760000     -30.46490000     -67.88030000
H      -41.98820000     -29.52160000     -69.00330000
C      -46.45160000     -30.75010000     -68.83270000
H      -47.39970000     -30.61290000     -69.38630000
H      -46.54580000     -30.05580000     -67.95470000
C      -44.07730000     -29.84990000     -73.25730000
H      -45.00470000     -29.40210000     -73.60280000
H      -43.16430000     -29.46560000     -73.69350000
S      -46.32190000     -32.39820000     -68.04720000
S      -44.26950000     -31.68500000     -73.77920000
C      -46.71390000     -33.62240000     -69.38790000
H      -47.73120000     -33.94970000     -69.25130000
H      -46.62900000     -33.08700000     -70.34450000
C      -43.29950000     -32.72500000     -72.59510000
H      -42.67760000     -31.99860000     -72.00580000
H      -42.64530000     -33.34620000     -73.16100000
C      -44.23160000     -33.52490000     -71.73170000
H      -43.71660000     -33.89390000     -70.87530000
H      -44.93060000     -32.79090000     -71.35160000
C      -45.74650000     -34.80990000     -69.21670000
H      -45.89320000     -35.22170000     -68.21800000
H      -44.68390000     -34.52850000     -69.33750000
C      -46.10960000     -35.84620000     -70.26870000
C      -46.91440000     -36.95610000     -70.11360000
C      -45.74720000     -35.67550000     -71.66320000
H      -47.43200000     -37.18050000     -69.15110000
C      -46.23500000     -36.68170000     -72.51950000
C      -44.97810000     -34.68290000     -72.38390000
C      -44.88620000     -35.01800000     -73.72480000
S      -47.22540000     -37.81170000     -71.62580000
S      -45.82720000     -36.39990000     -74.27070000
H      -44.40150000     -34.30720000     -74.42810000
