40
Properties=species:S:1:pos:R:3 #=T CELL(abcABC):=T 1.889726e+02=T 90.00000=T Traj:=T positionsangstrom=T Step:=T 0=T Bead:=T pbc="F F F"
C      -42.98830000     -29.63470000     -71.11240000
C      -44.19130000     -29.79340000     -71.81570000
C      -45.32520000     -30.17950000     -71.05480000
C      -45.27840000     -30.28020000     -69.61300000
C      -44.03620000     -30.05930000     -69.01350000
C      -42.93440000     -29.67160000     -69.73980000
H      -42.05000000     -29.44190000     -71.76730000
H      -46.27110000     -30.51240000     -71.53290000
H      -44.02040000     -29.97680000     -67.94890000
H      -42.03580000     -29.55750000     -69.16630000
C      -46.49940000     -30.68900000     -68.81860000
H      -47.29040000     -30.89380000     -69.55490000
H      -46.87090000     -29.93480000     -68.16970000
C      -44.28380000     -29.86680000     -73.31880000
H      -45.23390000     -29.47410000     -73.75160000
H      -43.46200000     -29.30160000     -73.83390000
S      -46.32510000     -32.35650000     -67.86880000
S      -44.10090000     -31.66260000     -73.93090000
C      -46.81370000     -33.58070000     -69.10730000
H      -47.89730000     -33.76500000     -69.04830000
H      -46.62460000     -33.20360000     -70.14050000
C      -43.17090000     -32.57700000     -72.63440000
H      -42.65030000     -31.86790000     -72.00900000
H      -42.37200000     -33.14870000     -73.18760000
C      -44.01240000     -33.53700000     -71.79500000
H      -43.33760000     -34.09000000     -71.10000000
H      -44.76400000     -32.93810000     -71.16250000
C      -45.90680000     -34.84630000     -69.06160000
H      -46.12870000     -35.42990000     -68.16290000
H      -44.85440000     -34.56410000     -68.92320000
C      -46.16340000     -35.81240000     -70.27940000
C      -46.80350000     -36.98580000     -70.07010000
C      -45.79930000     -35.62540000     -71.68940000
H      -47.29180000     -37.29400000     -69.13870000
C      -46.22390000     -36.68090000     -72.46140000
C      -45.00300000     -34.66910000     -72.50310000
C      -44.89080000     -35.02410000     -73.84050000
S      -47.09700000     -37.93420000     -71.51850000
S      -45.90640000     -36.48670000     -74.23850000
H      -44.36930000     -34.49290000     -74.65310000
