40
Properties=species:S:1:pos:R:3 #=T CELL(abcABC):=T 1.889726e+02=T 90.00000=T Traj:=T positionsangstrom=T Step:=T 0=T Bead:=T pbc="F F F"
C      -43.14940000     -29.59310000     -71.18500000
C      -44.27990000     -30.08990000     -71.83830000
C      -45.36390000     -30.51360000     -71.01070000
C      -45.32660000     -30.36090000     -69.55260000
C      -44.14210000     -29.89230000     -68.98470000
C      -43.05960000     -29.57660000     -69.80760000
H      -42.34060000     -29.15190000     -71.79740000
H      -46.23250000     -30.67710000     -71.51420000
H      -44.02720000     -30.01180000     -67.89920000
H      -42.18410000     -29.30690000     -69.29020000
C      -46.54110000     -30.71440000     -68.80070000
H      -47.50040000     -30.86110000     -69.44240000
H      -46.60610000     -30.04690000     -67.93800000
C      -44.34350000     -30.07830000     -73.37040000
H      -45.24280000     -29.61380000     -73.71030000
H      -43.55800000     -29.37230000     -73.59660000
S      -46.24970000     -32.27960000     -67.91850000
S      -44.10690000     -31.75150000     -74.13920000
C      -46.82170000     -33.55970000     -69.17580000
H      -47.77240000     -34.00430000     -68.80470000
H      -46.91810000     -33.14840000     -70.18200000
C      -43.26220000     -32.80330000     -72.87880000
H      -42.46230000     -32.27670000     -72.32030000
H      -42.81620000     -33.67800000     -73.40850000
C      -44.20150000     -33.37750000     -71.78890000
H      -43.58730000     -33.47270000     -70.91300000
H      -44.84040000     -32.58360000     -71.52810000
C      -45.75660000     -34.70250000     -69.16870000
H      -45.82740000     -35.26810000     -68.20250000
H      -44.81570000     -34.19750000     -69.26350000
C      -46.14930000     -35.76380000     -70.15850000
C      -46.87230000     -36.92380000     -70.01770000
C      -45.65320000     -35.58420000     -71.53630000
H      -47.08560000     -37.32860000     -69.07230000
C      -46.15130000     -36.63440000     -72.34350000
C      -44.94330000     -34.61770000     -72.33470000
C      -44.88640000     -34.99470000     -73.66250000
S      -47.03320000     -37.87930000     -71.54820000
S      -45.80380000     -36.44330000     -74.06640000
H      -44.31280000     -34.44680000     -74.42250000
