40
Properties=species:S:1:pos:R:3 #=T CELL(abcABC):=T 1.889726e+02=T 90.00000=T Traj:=T positionsangstrom=T Step:=T 0=T Bead:=T pbc="F F F"
C      -45.77930000     -37.43470000     -72.56100000
C      -44.77930000     -36.77230000     -71.88790000
C      -44.07290000     -35.74730000     -72.58420000
C      -44.26040000     -35.45010000     -73.96080000
C      -45.32690000     -36.15760000     -74.58340000
C      -46.03930000     -37.12780000     -73.91510000
H      -46.32700000     -38.15470000     -72.02000000
H      -43.42870000     -35.13650000     -72.02320000
H      -45.45500000     -35.93420000     -75.65520000
H      -46.79320000     -37.70400000     -74.47980000
C      -43.61610000     -34.37090000     -74.76830000
H      -43.78880000     -34.45980000     -75.77660000
H      -42.56520000     -34.24180000     -74.51400000
C      -44.49990000     -37.06910000     -70.42990000
H      -44.45110000     -38.16220000     -70.34260000
H      -43.50380000     -36.67060000     -70.15810000
S      -44.23020000     -32.59340000     -74.22940000
S      -45.89930000     -36.53180000     -69.33780000
C      -45.98660000     -32.80510000     -73.78820000
H      -46.61890000     -31.92600000     -74.01430000
H      -46.47900000     -33.65080000     -74.41860000
C      -45.32610000     -34.80910000     -69.05290000
H      -44.64520000     -34.51800000     -69.83140000
H      -44.73910000     -34.66910000     -68.16580000
C      -46.48040000     -33.80920000     -69.15390000
H      -46.89100000     -34.12350000     -70.10840000
H      -47.15570000     -34.09260000     -68.36980000
C      -46.17890000     -33.02820000     -72.31070000
H      -45.58430000     -33.81620000     -71.79350000
H      -47.24710000     -33.33240000     -72.27560000
C      -45.88800000     -31.70280000     -71.57230000
C      -45.49550000     -30.54720000     -72.26050000
C      -45.79060000     -31.53920000     -70.10000000
H      -45.49300000     -30.40850000     -73.34130000
C      -45.52310000     -30.23450000     -69.72720000
C      -46.05400000     -32.36730000     -68.95440000
C      -45.71100000     -31.77190000     -67.75550000
S      -45.16750000     -29.22260000     -71.08670000
S      -45.40890000     -30.03030000     -67.96320000
H      -45.74480000     -32.16680000     -66.81950000
