40
Properties=species:S:1:pos:R:3 #=T CELL(abcABC):=T 1.889726e+02=T 90.00000=T Traj:=T positionsangstrom=T Step:=T 0=T Bead:=T pbc="F F F"
C      -45.82310000     -37.44840000     -72.58940000
C      -44.75850000     -36.85510000     -71.92360000
C      -43.88960000     -36.05460000     -72.70110000
C      -44.20400000     -35.63160000     -74.00570000
C      -45.33320000     -36.16210000     -74.59210000
C      -46.05180000     -37.15640000     -73.95800000
H      -46.39650000     -38.19380000     -72.01200000
H      -42.85220000     -35.72170000     -72.37740000
H      -45.45440000     -35.91570000     -75.64960000
H      -46.85880000     -37.61640000     -74.48910000
C      -43.48180000     -34.49850000     -74.66470000
H      -43.73070000     -34.46500000     -75.68260000
H      -42.45100000     -34.53980000     -74.56230000
C      -44.50860000     -37.11820000     -70.42390000
H      -44.63470000     -38.17200000     -70.18960000
H      -43.58760000     -36.64740000     -70.14440000
S      -44.08930000     -32.83000000     -74.04490000
S      -45.80430000     -36.38270000     -69.31910000
C      -45.94600000     -33.04940000     -73.72050000
H      -46.45850000     -32.32490000     -74.49210000
H      -46.17240000     -34.07120000     -74.12840000
C      -45.26540000     -34.61630000     -69.25600000
H      -44.99600000     -34.25720000     -70.18530000
H      -44.52550000     -34.26680000     -68.55890000
C      -46.55700000     -33.73990000     -68.98210000
H      -47.23910000     -33.98220000     -69.77560000
H      -46.95420000     -34.10600000     -68.04120000
C      -46.27120000     -32.95710000     -72.20540000
H      -45.62900000     -33.76980000     -71.89390000
H      -47.21640000     -33.31390000     -71.90590000
C      -45.95490000     -31.65510000     -71.52880000
C      -45.45240000     -30.56280000     -72.20020000
C      -46.00700000     -31.41750000     -70.11640000
H      -45.17180000     -30.47830000     -73.22870000
C      -45.53620000     -30.16350000     -69.75730000
C      -46.17800000     -32.26150000     -68.94670000
C      -45.88520000     -31.62230000     -67.75880000
S      -45.17020000     -29.19600000     -71.22630000
S      -45.54930000     -29.86180000     -68.04150000
H      -46.00910000     -32.05580000     -66.74630000
