40
Properties=species:S:1:pos:R:3 #=T CELL(abcABC):=T 1.889726e+02=T 90.00000=T Traj:=T positionsangstrom=T Step:=T 0=T Bead:=T pbc="F F F"
C      -43.05980000     -29.42450000     -71.91470000
C      -44.19760000     -30.10810000     -72.42720000
C      -45.28510000     -30.21890000     -71.56900000
C      -45.21760000     -29.77530000     -70.22410000
C      -43.99660000     -29.28160000     -69.73800000
C      -42.95000000     -29.04250000     -70.60230000
H      -42.13450000     -29.37890000     -72.53770000
H      -46.10570000     -30.81660000     -71.94500000
H      -43.93990000     -28.93240000     -68.69050000
H      -42.08920000     -28.48850000     -70.19360000
C      -46.31640000     -30.10000000     -69.22960000
H      -47.37640000     -30.27030000     -69.70060000
H      -46.60640000     -29.28260000     -68.49380000
C      -44.15760000     -30.72920000     -73.82140000
H      -44.85910000     -30.20460000     -74.45520000
H      -43.16620000     -30.69890000     -74.30460000
S      -45.99600000     -31.70930000     -68.20430000
S      -44.51150000     -32.58520000     -73.83370000
C      -46.57030000     -32.98960000     -69.40210000
H      -47.60910000     -33.00960000     -69.31000000
H      -46.41080000     -32.62640000     -70.39870000
C      -43.16640000     -33.26470000     -72.82140000
H      -42.73160000     -32.31690000     -72.40330000
H      -42.49510000     -33.81020000     -73.42730000
C      -43.73530000     -34.05070000     -71.59340000
H      -42.79760000     -34.46540000     -71.19890000
H      -44.22130000     -33.40050000     -70.88830000
C      -45.89270000     -34.32580000     -69.03220000
H      -46.23820000     -34.54450000     -68.00420000
H      -44.73450000     -34.21350000     -69.00140000
C      -46.33760000     -35.40300000     -70.01230000
C      -47.35590000     -36.25540000     -69.72120000
C      -45.80160000     -35.64680000     -71.27260000
H      -47.90230000     -36.29340000     -68.85170000
C      -46.42090000     -36.68510000     -71.89400000
C      -44.67000000     -35.18310000     -72.03900000
C      -44.51280000     -35.84220000     -73.20110000
S      -47.74930000     -37.44290000     -71.01720000
S      -45.50030000     -37.19300000     -73.39040000
H      -43.79270000     -35.67550000     -73.97410000
