40
Properties=species:S:1:pos:R:3 #=T CELL(abcABC):=T 1.889726e+02=T 90.00000=T Traj:=T positionsangstrom=T Step:=T 0=T Bead:=T pbc="F F F"
C      -43.03530000     -29.45400000     -71.99770000
C      -44.10140000     -30.21760000     -72.38850000
C      -45.14070000     -30.46310000     -71.41940000
C      -45.15710000     -29.80520000     -70.17990000
C      -44.06350000     -28.95890000     -69.87670000
C      -43.04520000     -28.81230000     -70.75110000
H      -42.31220000     -29.16310000     -72.78490000
H      -46.02950000     -30.96430000     -71.77130000
H      -43.87580000     -28.47120000     -68.93840000
H      -42.18120000     -28.29340000     -70.45880000
C      -46.27980000     -30.08160000     -69.18530000
H      -47.12340000     -30.32960000     -69.75010000
H      -46.47360000     -29.28310000     -68.52740000
C      -44.21310000     -30.73310000     -73.74130000
H      -45.08860000     -30.27610000     -74.25710000
H      -43.36500000     -30.29490000     -74.44370000
S      -46.01400000     -31.63040000     -68.19380000
S      -44.41230000     -32.54890000     -73.82920000
C      -46.40290000     -32.87730000     -69.46450000
H      -47.53540000     -32.96180000     -69.66340000
H      -45.94990000     -32.61680000     -70.43670000
C      -43.12200000     -33.25630000     -72.54060000
H      -42.73280000     -32.46050000     -72.00500000
H      -42.17720000     -33.71760000     -72.93520000
C      -43.87900000     -34.16330000     -71.54100000
H      -43.28800000     -34.59950000     -70.72680000
H      -44.58880000     -33.49610000     -71.00510000
C      -45.85300000     -34.28690000     -69.05180000
H      -46.25280000     -34.61990000     -68.06140000
H      -44.74470000     -34.25810000     -69.02510000
C      -46.29960000     -35.39220000     -70.04810000
C      -47.43050000     -36.14870000     -69.79570000
C      -45.74800000     -35.82220000     -71.27620000
H      -48.01060000     -36.13070000     -68.90920000
C      -46.42000000     -36.87650000     -71.89830000
C      -44.59320000     -35.32350000     -72.10830000
C      -44.50770000     -35.90750000     -73.32200000
S      -47.69690000     -37.43900000     -70.94850000
S      -45.75730000     -37.24250000     -73.44630000
H      -43.75540000     -35.68290000     -74.11630000
