40
Properties=species:S:1:pos:R:3 #=T CELL(abcABC):=T 1.889726e+02=T 90.00000=T Traj:=T positionsangstrom=T Step:=T 0=T Bead:=T pbc="F F F"
C      -46.23230000     -34.72470000     -74.73650000
C      -44.92380000     -34.21800000     -74.51800000
C      -44.03710000     -34.84060000     -73.65680000
C      -44.39550000     -36.06080000     -73.08060000
C      -45.74030000     -36.45860000     -73.10660000
C      -46.64300000     -35.79160000     -73.87120000
H      -46.86120000     -34.16450000     -75.44510000
H      -42.95660000     -34.49570000     -73.60070000
H      -46.02440000     -37.42870000     -72.64500000
H      -47.62910000     -36.23600000     -73.99100000
C      -43.45480000     -36.88540000     -72.17290000
H      -42.63130000     -37.28620000     -72.72330000
H      -43.99600000     -37.76620000     -71.76560000
C      -44.56160000     -33.00040000     -75.34470000
H      -43.87330000     -33.23190000     -76.18070000
H      -45.38840000     -32.54400000     -75.88610000
S      -42.75080000     -35.84500000     -70.84690000
S      -43.71770000     -31.70380000     -74.23540000
C      -44.25900000     -34.98970000     -70.12530000
H      -44.78740000     -34.77820000     -70.98570000
H      -44.69310000     -35.66710000     -69.43430000
C      -45.14940000     -31.27600000     -73.15710000
H      -46.08670000     -31.39090000     -73.74260000
H      -45.13260000     -30.21450000     -72.87190000
C      -45.15680000     -32.17190000     -71.98120000
H      -45.26390000     -33.18840000     -72.28980000
H      -44.16930000     -32.12200000     -71.51550000
C      -43.81330000     -33.72890000     -69.35050000
H      -43.28920000     -33.03270000     -69.99120000
H      -43.21570000     -33.91480000     -68.45220000
C      -45.07620000     -33.08950000     -68.76840000
C      -45.50180000     -33.28230000     -67.48950000
C      -46.06860000     -32.31980000     -69.52670000
H      -45.06100000     -33.98730000     -66.78000000
C      -46.99670000     -31.83770000     -68.66990000
C      -46.08590000     -31.79300000     -70.91130000
C      -47.11740000     -30.85730000     -71.00360000
S      -47.02050000     -32.49450000     -67.05850000
S      -48.07930000     -30.72310000     -69.49770000
H      -47.42070000     -30.29830000     -71.85800000
