40
Properties=species:S:1:pos:R:3 #=T CELL(abcABC):=T 1.889726e+02=T 90.00000=T Traj:=T positionsangstrom=T Step:=T 0=T Bead:=T pbc="F F F"
C      -43.11010000     -29.29940000     -72.27040000
C      -44.17870000     -30.14840000     -72.63400000
C      -45.23610000     -30.28130000     -71.74200000
C      -45.12080000     -29.83500000     -70.39930000
C      -43.94720000     -29.12130000     -70.03210000
C      -42.98970000     -28.80230000     -70.97400000
H      -42.29680000     -29.13910000     -73.02600000
H      -46.09130000     -30.85720000     -72.06450000
H      -43.93830000     -28.70020000     -69.06700000
H      -42.10480000     -28.17750000     -70.80760000
C      -46.10440000     -30.08870000     -69.32460000
H      -47.17780000     -30.17760000     -69.44950000
H      -45.98450000     -29.37010000     -68.48070000
C      -44.25790000     -30.80140000     -73.95380000
H      -45.22500000     -30.61360000     -74.54250000
H      -43.43860000     -30.42590000     -74.57760000
S      -45.54180000     -31.59000000     -68.33540000
S      -44.48600000     -32.66200000     -73.83920000
C      -46.47560000     -33.04660000     -69.08900000
H      -47.56450000     -33.01500000     -68.77990000
H      -46.42630000     -32.89730000     -70.19590000
C      -43.07610000     -33.22790000     -72.65600000
H      -42.71700000     -32.34840000     -72.19860000
H      -42.37370000     -33.80420000     -73.25980000
C      -43.75500000     -34.15310000     -71.57060000
H      -42.93770000     -34.57750000     -70.98950000
H      -44.28800000     -33.47080000     -70.84000000
C      -45.86830000     -34.40910000     -68.74900000
H      -46.18820000     -34.76760000     -67.77470000
H      -44.75300000     -34.40150000     -68.96920000
C      -46.32330000     -35.46840000     -69.83350000
C      -47.39820000     -36.33040000     -69.51020000
C      -45.77830000     -35.79210000     -71.12420000
H      -47.88180000     -36.31910000     -68.57360000
C      -46.49440000     -36.86320000     -71.76730000
C      -44.75670000     -35.21600000     -71.94050000
C      -44.61420000     -35.97850000     -73.08850000
S      -47.87780000     -37.37990000     -70.85400000
S      -45.90230000     -37.08560000     -73.36880000
H      -44.10330000     -35.74960000     -74.00170000
