40
Properties=species:S:1:pos:R:3 #=T CELL(abcABC):=T 1.889726e+02=T 90.00000=T Traj:=T positionsangstrom=T Step:=T 0=T Bead:=T pbc="F F F"
C      -43.11120000     -29.41770000     -72.37020000
C      -44.21240000     -30.25320000     -72.60560000
C      -45.11750000     -30.57300000     -71.50250000
C      -44.94820000     -29.97820000     -70.21930000
C      -43.89600000     -29.04400000     -70.09890000
C      -42.94410000     -28.77570000     -71.09330000
H      -42.42000000     -29.15440000     -73.14120000
H      -45.93980000     -31.31130000     -71.70830000
H      -43.69870000     -28.59760000     -69.06870000
H      -42.15010000     -28.09570000     -70.91900000
C      -46.00150000     -30.18490000     -69.15460000
H      -46.89540000     -30.39670000     -69.71180000
H      -46.10070000     -29.29120000     -68.53780000
C      -44.42690000     -30.87300000     -73.96680000
H      -45.40510000     -30.53420000     -74.27540000
H      -43.52870000     -30.73030000     -74.62260000
S      -45.67240000     -31.69930000     -68.10410000
S      -44.47790000     -32.77260000     -73.93700000
C      -46.58340000     -33.00420000     -69.03150000
H      -47.61180000     -32.88540000     -68.71300000
H      -46.44010000     -32.76000000     -70.09420000
C      -43.16380000     -33.34810000     -72.84840000
H      -42.46970000     -32.53800000     -72.52010000
H      -42.54180000     -34.00860000     -73.45750000
C      -43.64190000     -34.07120000     -71.58560000
H      -42.76300000     -34.57390000     -71.18370000
H      -43.92380000     -33.31600000     -70.91420000
C      -45.93030000     -34.38980000     -68.81330000
H      -46.05560000     -34.67850000     -67.81310000
H      -44.92750000     -34.28850000     -68.97730000
C      -46.39640000     -35.44890000     -69.81850000
C      -47.48890000     -36.23790000     -69.58540000
C      -45.80180000     -35.61660000     -71.14000000
H      -48.09630000     -36.12150000     -68.68320000
C      -46.54780000     -36.54360000     -71.87480000
C      -44.71480000     -35.10090000     -71.92390000
C      -44.60090000     -35.74120000     -73.09510000
S      -47.85000000     -37.29820000     -70.96760000
S      -45.81450000     -37.03900000     -73.34490000
H      -43.79480000     -35.72010000     -73.83480000
