40
Properties=species:S:1:pos:R:3 #=T CELL(abcABC):=T 1.889726e+02=T 90.00000=T Traj:=T positionsangstrom=T Step:=T 0=T Bead:=T pbc="F F F"
C      -43.17450000     -29.39320000     -72.33250000
C      -44.29190000     -30.15040000     -72.59180000
C      -45.15290000     -30.50330000     -71.57120000
C      -44.98490000     -29.95770000     -70.26570000
C      -43.89600000     -29.16610000     -70.02240000
C      -43.03760000     -28.91650000     -71.02780000
H      -42.39300000     -29.09940000     -73.10000000
H      -45.96470000     -31.24640000     -71.70720000
H      -43.83500000     -28.49490000     -69.15410000
H      -42.07040000     -28.38880000     -70.78090000
C      -45.97170000     -30.09130000     -69.16600000
H      -47.08610000     -30.13860000     -69.32800000
H      -45.82600000     -29.25980000     -68.39800000
C      -44.36970000     -30.83610000     -73.97000000
H      -45.17230000     -30.32790000     -74.50270000
H      -43.52710000     -30.59050000     -74.61440000
S      -45.62610000     -31.64540000     -68.06470000
S      -44.43280000     -32.70530000     -73.99540000
C      -46.50030000     -32.92990000     -69.18820000
H      -47.59370000     -32.96090000     -68.87760000
H      -46.49150000     -32.69930000     -70.23230000
C      -43.15040000     -33.23270000     -72.78020000
H      -42.70280000     -32.34000000     -72.34470000
H      -42.47670000     -33.88960000     -73.37850000
C      -43.78900000     -34.02490000     -71.61780000
H      -42.93840000     -34.38950000     -70.97800000
H      -44.30100000     -33.30640000     -70.89160000
C      -45.90760000     -34.33240000     -68.87760000
H      -46.19870000     -34.62430000     -67.75970000
H      -44.75660000     -34.15190000     -69.00440000
C      -46.38070000     -35.40710000     -69.83700000
C      -47.51680000     -36.11090000     -69.64010000
C      -45.73610000     -35.75720000     -71.11400000
H      -48.08190000     -36.10790000     -68.67420000
C      -46.42070000     -36.75290000     -71.76440000
C      -44.64930000     -35.25490000     -72.00910000
C      -44.58490000     -35.96890000     -73.14380000
S      -47.83700000     -37.34070000     -70.85320000
S      -45.90470000     -37.08510000     -73.38160000
H      -43.95130000     -35.82720000     -74.03460000
