40
Properties=species:S:1:pos:R:3 #=T CELL(abcABC):=T 1.889726e+02=T 90.00000=T Traj:=T positionsangstrom=T Step:=T 0=T Bead:=T pbc="F F F"
C      -43.00280000     -29.56430000     -72.18360000
C      -44.20620000     -30.17190000     -72.60850000
C      -45.27140000     -30.29790000     -71.66940000
C      -45.08480000     -29.77600000     -70.40610000
C      -43.91470000     -29.08680000     -70.01930000
C      -42.94790000     -28.93740000     -70.98880000
H      -42.17050000     -29.47290000     -72.86960000
H      -46.12260000     -30.80230000     -71.96870000
H      -43.71690000     -28.63030000     -69.08660000
H      -42.13340000     -28.29350000     -70.78830000
C      -45.99320000     -30.05030000     -69.30250000
H      -47.02410000     -30.23580000     -69.76300000
H      -46.01340000     -29.17900000     -68.60580000
C      -44.16890000     -30.75720000     -73.98260000
H      -44.93610000     -30.37550000     -74.60380000
H      -43.12420000     -30.71220000     -74.22370000
S      -45.58580000     -31.57050000     -68.32920000
S      -44.63350000     -32.57860000     -73.98190000
C      -46.40960000     -32.86100000     -69.35120000
H      -47.47450000     -32.69560000     -69.21660000
H      -46.11010000     -32.64730000     -70.46770000
C      -43.23010000     -33.42210000     -73.00670000
H      -42.51790000     -32.63820000     -72.74000000
H      -42.87930000     -34.18110000     -73.72380000
C      -43.66660000     -34.16480000     -71.68750000
H      -42.72310000     -34.65080000     -71.26450000
H      -44.03870000     -33.59160000     -70.86060000
C      -46.00320000     -34.21710000     -68.84330000
H      -46.39110000     -34.33640000     -67.86330000
H      -44.88840000     -34.24910000     -68.63100000
C      -46.35150000     -35.35270000     -69.74230000
C      -47.44400000     -36.19740000     -69.41610000
C      -45.78390000     -35.72700000     -71.02680000
H      -48.13980000     -36.13050000     -68.60590000
C      -46.49940000     -36.77370000     -71.69720000
C      -44.68650000     -35.32950000     -71.89490000
C      -44.60970000     -36.08450000     -73.02170000
S      -47.82080000     -37.43730000     -70.71570000
S      -45.88660000     -37.16440000     -73.25290000
H      -43.81860000     -36.01500000     -73.80230000
