40
Properties=species:S:1:pos:R:3 #=T CELL(abcABC):=T 1.889726e+02=T 90.00000=T Traj:=T positionsangstrom=T Step:=T 0=T Bead:=T pbc="F F F"
C      -43.03450000     -29.56470000     -72.27780000
C      -44.16880000     -30.31590000     -72.55020000
C      -45.13900000     -30.47300000     -71.61840000
C      -44.91590000     -29.81530000     -70.35590000
C      -43.76130000     -29.08810000     -70.06060000
C      -42.82650000     -28.88830000     -71.04250000
H      -42.25320000     -29.57570000     -72.96970000
H      -46.06510000     -31.06270000     -71.85770000
H      -43.67600000     -28.62750000     -69.05130000
H      -41.86440000     -28.48860000     -70.85120000
C      -46.12060000     -29.93110000     -69.48010000
H      -47.07130000     -30.05150000     -70.00150000
H      -46.26570000     -29.14430000     -68.76200000
C      -44.31430000     -30.94680000     -73.92970000
H      -45.18980000     -30.55520000     -74.57230000
H      -43.56230000     -30.57320000     -74.61130000
S      -45.80600000     -31.46600000     -68.37120000
S      -44.65430000     -32.71710000     -73.95790000
C      -46.41190000     -32.80480000     -69.35080000
H      -47.47140000     -32.89710000     -69.34780000
H      -46.06150000     -32.76600000     -70.36020000
C      -43.27580000     -33.38520000     -72.97740000
H      -42.60570000     -32.58610000     -72.65110000
H      -42.77610000     -34.16390000     -73.61020000
C      -43.91490000     -34.03830000     -71.73800000
H      -43.10300000     -34.37220000     -71.08950000
H      -44.45680000     -33.19500000     -71.27190000
C      -45.80890000     -34.11540000     -68.85000000
H      -46.08780000     -34.32370000     -67.83420000
H      -44.67620000     -33.98330000     -68.92570000
C      -46.24140000     -35.25830000     -69.77490000
C      -47.32210000     -36.17640000     -69.43700000
C      -45.73220000     -35.66790000     -71.05880000
H      -47.90990000     -36.19090000     -68.52160000
C      -46.37690000     -36.81340000     -71.57020000
C      -44.86500000     -35.13320000     -72.03200000
C      -44.82280000     -35.84530000     -73.17550000
S      -47.64710000     -37.43680000     -70.61090000
S      -45.86760000     -37.34340000     -73.13900000
H      -44.22920000     -35.60150000     -74.03690000
