40
Properties=species:S:1:pos:R:3 #=T CELL(abcABC):=T 1.889726e+02=T 90.00000=T Traj:=T positionsangstrom=T Step:=T 0=T Bead:=T pbc="F F F"
C      -42.97930000     -29.57870000     -72.50340000
C      -44.15170000     -30.30770000     -72.73340000
C      -45.12860000     -30.51080000     -71.71330000
C      -44.89210000     -30.04570000     -70.51260000
C      -43.64830000     -29.43380000     -70.19250000
C      -42.67200000     -29.29940000     -71.19540000
H      -42.29640000     -29.50670000     -73.35090000
H      -46.06970000     -31.01460000     -71.98570000
H      -43.50400000     -29.20390000     -69.10730000
H      -41.66670000     -28.98270000     -70.86420000
C      -45.97620000     -29.92590000     -69.49950000
H      -46.99050000     -29.90610000     -70.00350000
H      -45.88220000     -29.00630000     -68.89210000
C      -44.49210000     -30.86890000     -74.12150000
H      -45.51540000     -30.50670000     -74.23830000
H      -43.77300000     -30.45450000     -74.91880000
S      -46.04980000     -31.33870000     -68.31710000
S      -44.51010000     -32.67900000     -74.31890000
C      -46.65730000     -32.87360000     -69.15310000
H      -47.72600000     -32.92380000     -69.07250000
H      -46.43940000     -32.71590000     -70.19020000
C      -43.25640000     -33.37720000     -73.04880000
H      -42.52040000     -32.50890000     -72.91660000
H      -42.82270000     -34.29060000     -73.48950000
C      -43.96140000     -33.81550000     -71.77990000
H      -43.24280000     -34.15810000     -70.95130000
H      -44.45790000     -32.90430000     -71.39610000
C      -45.88640000     -34.17180000     -68.71530000
H      -45.99630000     -34.37980000     -67.62410000
H      -44.86770000     -33.84030000     -68.66730000
C      -46.21570000     -35.33650000     -69.62630000
C      -47.05720000     -36.31980000     -69.10290000
C      -45.84060000     -35.51700000     -71.01920000
H      -47.35320000     -36.33870000     -68.02130000
C      -46.44950000     -36.66910000     -71.45290000
C      -44.92410000     -34.98820000     -72.05520000
C      -44.88790000     -35.77970000     -73.14420000
S      -47.48650000     -37.53470000     -70.30170000
S      -45.91690000     -37.19510000     -73.05350000
H      -44.28790000     -35.73550000     -73.98410000
