40
Properties=species:S:1:pos:R:3 #=T CELL(abcABC):=T 1.889726e+02=T 90.00000=T Traj:=T positionsangstrom=T Step:=T 0=T Bead:=T pbc="F F F"
C      -42.86660000     -30.12110000     -72.29160000
C      -44.18000000     -30.47940000     -72.74280000
C      -45.25050000     -30.38860000     -71.86210000
C      -45.07960000     -29.96280000     -70.55390000
C      -43.76180000     -29.55550000     -70.15510000
C      -42.62730000     -29.63930000     -71.00060000
H      -41.99260000     -30.08070000     -72.98140000
H      -46.26890000     -30.61760000     -72.09620000
H      -43.72540000     -29.06180000     -69.21160000
H      -41.68970000     -29.24010000     -70.65600000
C      -46.19070000     -30.00430000     -69.54930000
H      -47.14590000     -30.15170000     -69.99330000
H      -46.23190000     -29.08950000     -69.09570000
C      -44.27580000     -30.87040000     -74.13740000
H      -45.11420000     -30.39090000     -74.67390000
H      -43.57470000     -30.40330000     -74.79030000
S      -46.04930000     -31.32560000     -68.19810000
S      -44.49330000     -32.66660000     -74.43660000
C      -46.52120000     -32.70950000     -69.39750000
H      -47.58670000     -32.94920000     -69.22940000
H      -46.27840000     -32.45680000     -70.43380000
C      -43.39250000     -33.26230000     -72.99630000
H      -42.74730000     -32.42200000     -72.76980000
H      -42.86220000     -34.09190000     -73.38290000
C      -44.21270000     -33.65610000     -71.76980000
H      -43.56140000     -33.80710000     -70.92500000
H      -44.85660000     -32.89110000     -71.54210000
C      -45.78600000     -33.98350000     -68.92610000
H      -46.07440000     -34.17310000     -67.91900000
H      -44.66910000     -33.91810000     -69.08900000
C      -46.19210000     -35.23710000     -69.66190000
C      -47.09460000     -36.19950000     -69.19110000
C      -45.76620000     -35.61030000     -70.96680000
H      -47.57610000     -36.16810000     -68.15560000
C      -46.29820000     -36.82530000     -71.40080000
C      -44.92890000     -34.96830000     -71.97370000
C      -44.92960000     -35.66870000     -73.10190000
S      -47.34070000     -37.53630000     -70.24910000
S      -45.94450000     -37.13060000     -73.02610000
H      -44.46240000     -35.43410000     -74.01150000
