40
Properties=species:S:1:pos:R:3 #=T CELL(abcABC):=T 1.889726e+02=T 90.00000=T Traj:=T positionsangstrom=T Step:=T 0=T Bead:=T pbc="F F F"
C      -42.85400000     -30.32640000     -72.29210000
C      -44.13040000     -30.35520000     -72.74910000
C      -45.22890000     -30.25330000     -71.91270000
C      -45.06510000     -30.18740000     -70.53070000
C      -43.73310000     -30.05290000     -70.05140000
C      -42.63010000     -30.12000000     -70.93190000
H      -42.04800000     -30.53990000     -72.90600000
H      -46.22440000     -30.33670000     -72.39300000
H      -43.60240000     -29.90560000     -68.97140000
H      -41.63350000     -30.14570000     -70.55730000
C      -46.24970000     -30.03670000     -69.58860000
H      -47.15930000     -30.20370000     -70.07100000
H      -46.29450000     -29.07280000     -69.10700000
C      -44.33860000     -30.65070000     -74.23670000
H      -45.24780000     -30.31000000     -74.75650000
H      -43.40880000     -30.21440000     -74.82150000
S      -46.25540000     -31.30290000     -68.23750000
S      -44.27190000     -32.43470000     -74.47490000
C      -46.67840000     -32.79000000     -69.24120000
H      -47.65920000     -33.07470000     -68.92430000
H      -46.59990000     -32.49320000     -70.31780000
C      -43.28970000     -33.36170000     -73.22100000
H      -42.45770000     -32.75820000     -72.88210000
H      -43.06160000     -34.26410000     -73.74270000
C      -44.07320000     -33.72680000     -71.87550000
H      -43.34360000     -33.84290000     -71.14790000
H      -44.67540000     -32.85830000     -71.61400000
C      -45.72570000     -33.95920000     -68.91540000
H      -45.62030000     -34.25340000     -67.83500000
H      -44.69320000     -33.60990000     -69.11200000
C      -46.18530000     -35.10620000     -69.68820000
C      -47.04060000     -36.01290000     -69.03450000
C      -45.80940000     -35.48530000     -71.06360000
H      -47.47440000     -35.95360000     -68.07030000
C      -46.47200000     -36.69130000     -71.42870000
C      -44.93270000     -34.95340000     -72.06000000
C      -44.83630000     -35.84350000     -73.10220000
S      -47.34400000     -37.43700000     -70.05450000
S      -46.01980000     -37.12260000     -73.04440000
H      -44.16490000     -35.83250000     -73.94320000
