40
Properties=species:S:1:pos:R:3 #=T CELL(abcABC):=T 1.889726e+02=T 90.00000=T Traj:=T positionsangstrom=T Step:=T 0=T Bead:=T pbc="F F F"
C      -42.78060000     -30.06870000     -72.27010000
C      -44.03690000     -30.41160000     -72.75930000
C      -45.15280000     -30.41210000     -71.86120000
C      -44.97860000     -30.17360000     -70.44330000
C      -43.65170000     -30.20020000     -69.99400000
C      -42.56270000     -30.08050000     -70.91130000
H      -41.93550000     -29.81520000     -72.98050000
H      -46.10780000     -30.56200000     -72.27890000
H      -43.44480000     -30.10690000     -68.91000000
H      -41.52320000     -29.83340000     -70.51780000
C      -46.08470000     -29.94750000     -69.49580000
H      -47.02840000     -29.73540000     -70.11720000
H      -45.88600000     -28.97020000     -68.99510000
C      -44.30510000     -30.82480000     -74.20800000
H      -45.35950000     -30.44670000     -74.48260000
H      -43.60380000     -30.42000000     -74.88760000
S      -46.36520000     -31.18180000     -68.20170000
S      -44.39190000     -32.62450000     -74.63880000
C      -46.70990000     -32.73580000     -69.19470000
H      -47.70160000     -33.08860000     -68.82160000
H      -46.76850000     -32.59670000     -70.23580000
C      -43.37540000     -33.23880000     -73.21390000
H      -42.57710000     -32.50040000     -72.93860000
H      -42.75940000     -34.10670000     -73.55480000
C      -44.17600000     -33.68320000     -71.99490000
H      -43.48290000     -33.84320000     -71.07370000
H      -44.93550000     -32.93740000     -71.66700000
C      -45.62890000     -33.85920000     -68.98990000
H      -45.43310000     -33.92500000     -67.97230000
H      -44.73150000     -33.48560000     -69.45750000
C      -45.97860000     -35.21440000     -69.61270000
C      -46.92450000     -36.09200000     -69.01810000
C      -45.56560000     -35.61180000     -70.95420000
H      -47.47430000     -35.92770000     -68.11350000
C      -46.22080000     -36.77540000     -71.29240000
C      -44.90770000     -35.01370000     -72.07470000
C      -45.05700000     -35.71830000     -73.22620000
S      -47.53460000     -37.28790000     -70.16590000
S      -46.03600000     -37.20630000     -72.95720000
H      -44.74000000     -35.49300000     -74.19840000
