40
Properties=species:S:1:pos:R:3 #=T CELL(abcABC):=T 1.889726e+02=T 90.00000=T Traj:=T positionsangstrom=T Step:=T 0=T Bead:=T pbc="F F F"
C      -45.24120000     -31.11170000     -70.06080000
C      -43.94980000     -31.64280000     -70.09860000
C      -43.47770000     -31.99300000     -71.37460000
C      -44.22010000     -31.81710000     -72.60490000
C      -45.39490000     -31.14020000     -72.47180000
C      -45.95750000     -30.95600000     -71.21440000
H      -45.64690000     -30.91050000     -69.09340000
H      -42.49660000     -32.53330000     -71.29930000
H      -46.04310000     -31.00560000     -73.35540000
H      -46.92040000     -30.49010000     -71.36040000
C      -43.53600000     -32.01580000     -73.87160000
H      -42.44030000     -32.00610000     -73.68660000
H      -43.62530000     -31.08770000     -74.44670000
C      -43.11860000     -31.74270000     -68.86720000
H      -42.07220000     -31.53060000     -69.16490000
H      -43.28290000     -30.93930000     -68.08110000
S      -44.11170000     -33.27600000     -75.01060000
S      -43.15530000     -33.31840000     -67.89540000
C      -43.76330000     -34.90540000     -74.13070000
H      -44.21190000     -35.67420000     -74.76160000
H      -42.70190000     -35.21020000     -74.20710000
C      -43.26690000     -34.52770000     -69.27790000
H      -42.47550000     -35.27550000     -69.22040000
H      -42.96340000     -34.03780000     -70.24950000
C      -44.63070000     -35.32210000     -69.20560000
H      -44.45840000     -36.30280000     -69.76050000
H      -44.73730000     -35.61240000     -68.20270000
C      -44.32900000     -35.02000000     -72.70150000
H      -43.65690000     -34.46660000     -72.04720000
H      -44.11460000     -36.06160000     -72.37510000
C      -45.81240000     -34.68870000     -72.55480000
C      -46.73190000     -34.31910000     -73.47950000
C      -46.35100000     -34.59040000     -71.21520000
H      -46.66590000     -34.31890000     -74.52380000
C      -47.68250000     -34.08930000     -71.16970000
C      -45.86610000     -34.65310000     -69.77080000
C      -46.76730000     -34.07840000     -68.88290000
S      -48.32940000     -34.01310000     -72.85550000
S      -48.30780000     -33.75080000     -69.58480000
H      -46.61960000     -33.83970000     -67.87390000
