40
Properties=species:S:1:pos:R:3 #=T CELL(abcABC):=T 1.889726e+02=T 90.00000=T Traj:=T positionsangstrom=T Step:=T 0=T Bead:=T pbc="F F F"
C      -42.70430000     -33.22200000     -74.31660000
C      -42.50950000     -32.58370000     -73.05010000
C      -43.31500000     -31.51400000     -72.66520000
C      -44.12640000     -30.89380000     -73.60970000
C      -44.31670000     -31.46960000     -74.83900000
C      -43.59070000     -32.65520000     -75.21910000
H      -41.97260000     -33.98840000     -74.65100000
H      -43.30690000     -31.13460000     -71.60010000
H      -45.17990000     -31.17100000     -75.40770000
H      -43.87690000     -33.19680000     -76.11520000
C      -44.85360000     -29.66490000     -73.27690000
H      -45.81600000     -29.62630000     -73.91760000
H      -44.25810000     -28.73460000     -73.57110000
C      -41.44110000     -33.17410000     -72.05720000
H      -40.41920000     -33.19620000     -72.52400000
H      -41.30440000     -32.58400000     -71.18700000
S      -45.47980000     -29.51290000     -71.51760000
S      -41.87720000     -34.92110000     -71.49010000
C      -46.68820000     -30.96430000     -71.33440000
H      -47.63320000     -30.68530000     -70.82570000
H      -46.94160000     -31.29480000     -72.36560000
C      -43.53900000     -34.62500000     -70.64330000
H      -43.57790000     -33.57160000     -70.50020000
H      -43.67940000     -35.13480000     -69.62360000
C      -44.74210000     -35.14190000     -71.53530000
H      -44.88640000     -34.31900000     -72.26500000
H      -44.38600000     -35.98430000     -72.13060000
C      -45.99060000     -32.20110000     -70.62240000
H      -45.34290000     -31.85070000     -69.79900000
H      -45.26210000     -32.57250000     -71.26850000
C      -47.01480000     -33.19360000     -70.03440000
C      -48.04740000     -32.83210000     -69.15080000
C      -46.85200000     -34.56380000     -70.24730000
H      -48.15240000     -31.86900000     -68.79490000
C      -47.77850000     -35.21350000     -69.42030000
C      -45.92490000     -35.56300000     -70.83290000
C      -46.25200000     -36.86240000     -70.54840000
S      -48.80220000     -34.23310000     -68.44300000
S      -47.69600000     -36.94250000     -69.55170000
H      -45.58280000     -37.69590000     -70.82220000
