40
Properties=species:S:1:pos:R:3 #=T CELL(abcABC):=T 1.889726e+02=T 90.00000=T Traj:=T positionsangstrom=T Step:=T 0=T Bead:=T pbc="F F F"
C      -45.07680000     -30.77190000     -70.63750000
C      -43.83550000     -31.44740000     -70.54250000
C      -43.22640000     -31.90460000     -71.70080000
C      -43.96810000     -31.96350000     -72.87620000
C      -45.25810000     -31.44920000     -72.97950000
C      -45.74290000     -30.79550000     -71.86490000
H      -45.42810000     -30.32550000     -69.74640000
H      -42.14780000     -32.16880000     -71.65590000
H      -45.78350000     -31.43680000     -73.95350000
H      -46.74690000     -30.36110000     -71.94210000
C      -43.30820000     -32.57860000     -74.11460000
H      -42.44330000     -33.10790000     -73.77460000
H      -42.91040000     -31.71610000     -74.66160000
C      -43.12230000     -31.37800000     -69.19050000
H      -42.01180000     -31.39580000     -69.46610000
H      -43.45050000     -30.51580000     -68.61260000
S      -44.44020000     -33.71620000     -75.06390000
S      -43.40220000     -32.84410000     -68.08970000
C      -44.35720000     -35.41870000     -74.19680000
H      -45.25190000     -35.81070000     -74.69820000
H      -43.38650000     -35.99490000     -74.40160000
C      -43.13760000     -34.25660000     -69.35630000
H      -42.21350000     -34.74660000     -69.13970000
H      -43.09780000     -33.88860000     -70.42650000
C      -44.29070000     -35.26310000     -69.33630000
H      -44.01450000     -36.06730000     -70.08970000
H      -44.33610000     -35.72410000     -68.35390000
C      -44.62490000     -35.26240000     -72.72200000
H      -43.85790000     -34.55000000     -72.36300000
H      -44.48870000     -36.25960000     -72.25330000
C      -45.92810000     -34.63080000     -72.25950000
C      -46.98280000     -34.35520000     -73.12100000
C      -46.30100000     -34.53900000     -70.86260000
H      -47.03200000     -34.39510000     -74.19880000
C      -47.57670000     -34.03120000     -70.75740000
C      -45.61480000     -34.49480000     -69.59730000
C      -46.44030000     -34.09810000     -68.53100000
S      -48.46790000     -33.93920000     -72.29820000
S      -48.09700000     -33.80910000     -69.14740000
H      -46.07450000     -34.12100000     -67.55060000
