40
Properties=species:S:1:pos:R:3 #=T CELL(abcABC):=T 1.889726e+02=T 90.00000=T Traj:=T positionsangstrom=T Step:=T 0=T Bead:=T pbc="F F F"
C      -45.19320000     -30.78610000     -70.75660000
C      -43.90320000     -31.36020000     -70.61660000
C      -43.31120000     -31.94050000     -71.77540000
C      -44.03210000     -32.03440000     -72.97220000
C      -45.25420000     -31.38700000     -73.12920000
C      -45.85330000     -30.69250000     -71.96710000
H      -45.70590000     -30.44210000     -69.84560000
H      -42.38860000     -32.52430000     -71.68940000
H      -45.69400000     -31.35300000     -74.16680000
H      -46.77110000     -30.10640000     -71.90470000
C      -43.37160000     -32.60280000     -74.12270000
H      -42.43690000     -33.22070000     -73.94540000
H      -43.17300000     -31.89050000     -74.93990000
C      -43.13830000     -31.20060000     -69.34830000
H      -42.11700000     -30.90520000     -69.60860000
H      -43.41790000     -30.29380000     -68.81530000
S      -44.46900000     -33.79730000     -75.15320000
S      -43.16150000     -32.63330000     -68.26670000
C      -44.30810000     -35.38490000     -74.05570000
H      -44.99720000     -36.08590000     -74.57230000
H      -43.33450000     -35.86440000     -74.08590000
C      -43.10350000     -34.18930000     -69.27040000
H      -42.08730000     -34.57310000     -69.01890000
H      -43.02360000     -33.96730000     -70.28730000
C      -44.22760000     -35.20710000     -69.26390000
H      -43.89210000     -35.85790000     -70.07260000
H      -44.36970000     -35.88850000     -68.37520000
C      -44.61210000     -35.33780000     -72.57350000
H      -43.92410000     -34.54690000     -72.22360000
H      -44.22740000     -36.23930000     -72.05690000
C      -45.98830000     -34.84350000     -72.17630000
C      -46.98830000     -34.54920000     -73.07210000
C      -46.31560000     -34.48430000     -70.79970000
H      -46.97460000     -34.50350000     -74.11370000
C      -47.62060000     -34.07610000     -70.67650000
C      -45.68690000     -34.72870000     -69.46750000
C      -46.56180000     -34.44500000     -68.45450000
S      -48.42420000     -33.79090000     -72.25860000
S      -48.09320000     -33.84780000     -68.98050000
H      -46.32410000     -34.65010000     -67.43250000
