40
Properties=species:S:1:pos:R:3 #=T CELL(abcABC):=T 1.889726e+02=T 90.00000=T Traj:=T positionsangstrom=T Step:=T 0=T Bead:=T pbc="F F F"
C      -42.60310000     -32.85070000     -74.06870000
C      -42.45000000     -32.58860000     -72.72360000
C      -43.31890000     -31.66190000     -72.10010000
C      -44.15280000     -30.90570000     -72.90140000
C      -44.29210000     -31.22010000     -74.26220000
C      -43.55130000     -32.18530000     -74.86230000
H      -41.91220000     -33.51770000     -74.49120000
H      -43.11480000     -31.45660000     -71.10150000
H      -45.15060000     -30.70760000     -74.79670000
H      -43.59970000     -32.34850000     -75.94590000
C      -45.01120000     -29.74460000     -72.46860000
H      -46.00960000     -29.95200000     -72.88640000
H      -44.62570000     -28.85350000     -72.90170000
C      -41.38800000     -33.16660000     -71.85380000
H      -40.44150000     -33.11550000     -72.47310000
H      -41.29950000     -32.64960000     -70.91380000
S      -45.24830000     -29.44280000     -70.67560000
S      -41.67710000     -34.99280000     -71.59640000
C      -46.65110000     -30.69130000     -70.30190000
H      -47.09150000     -30.45550000     -69.33050000
H      -47.33060000     -30.46020000     -71.14950000
C      -43.43580000     -35.12260000     -70.76190000
H      -43.31100000     -34.57600000     -69.82430000
H      -43.50910000     -36.15760000     -70.49900000
C      -44.51390000     -34.82010000     -71.74410000
H      -44.64180000     -33.71330000     -71.83030000
H      -44.15950000     -35.15820000     -72.71620000
C      -46.09040000     -32.14210000     -70.47670000
H      -45.27040000     -32.35070000     -69.83190000
H      -45.68170000     -32.26970000     -71.45160000
C      -47.15400000     -33.17730000     -70.24160000
C      -48.37210000     -32.98970000     -69.59830000
C      -46.92160000     -34.60300000     -70.51030000
H      -48.83660000     -32.05810000     -69.20900000
C      -47.97590000     -35.39740000     -70.04100000
C      -45.84780000     -35.39930000     -71.13730000
C      -46.09840000     -36.75130000     -71.08190000
S      -49.20770000     -34.46020000     -69.32690000
S      -47.67550000     -37.09910000     -70.39910000
H      -45.39010000     -37.51390000     -71.36570000
