40
Properties=species:S:1:pos:R:3 #=T CELL(abcABC):=T 1.889726e+02=T 90.00000=T Traj:=T positionsangstrom=T Step:=T 0=T Bead:=T pbc="F F F"
C      -42.65460000     -32.62770000     -73.87800000
C      -42.27570000     -32.30830000     -72.57790000
C      -42.76180000     -31.10310000     -71.97160000
C      -43.85070000     -30.43950000     -72.53940000
C      -44.33170000     -30.81690000     -73.77020000
C      -43.75230000     -31.91960000     -74.44360000
H      -42.33350000     -33.52830000     -74.32260000
H      -42.53790000     -30.89600000     -70.97320000
H      -45.24620000     -30.37910000     -74.17880000
H      -44.10350000     -32.23600000     -75.45190000
C      -44.76570000     -29.42540000     -71.71810000
H      -45.68060000     -29.30430000     -72.18360000
H      -44.35720000     -28.46430000     -71.79220000
C      -41.27770000     -33.14400000     -71.78520000
H      -40.30750000     -33.11260000     -72.27830000
H      -41.17290000     -32.65370000     -70.76720000
S      -45.13490000     -29.76780000     -69.97870000
S      -41.75060000     -34.96950000     -71.65960000
C      -46.49660000     -30.99460000     -70.08860000
H      -46.88820000     -31.04060000     -69.08580000
H      -47.29260000     -30.56550000     -70.70620000
C      -43.53220000     -34.79300000     -71.00090000
H      -43.67870000     -33.80760000     -70.63640000
H      -43.59990000     -35.57180000     -70.12430000
C      -44.53920000     -35.23070000     -72.08690000
H      -44.53010000     -34.46920000     -72.95100000
H      -44.16340000     -36.15790000     -72.43060000
C      -46.08350000     -32.29310000     -70.70480000
H      -45.11940000     -32.61560000     -70.37590000
H      -46.02550000     -32.13270000     -71.74880000
C      -47.17620000     -33.32200000     -70.49230000
C      -48.34920000     -33.05470000     -69.90860000
C      -46.86970000     -34.74470000     -70.71310000
H      -48.58560000     -32.08600000     -69.43060000
C      -47.97720000     -35.48760000     -70.34940000
C      -45.91120000     -35.54820000     -71.42570000
C      -46.34130000     -36.85560000     -71.49690000
S      -49.30730000     -34.53270000     -69.68380000
S      -47.94060000     -37.23400000     -70.78730000
H      -45.92650000     -37.69750000     -71.93110000
