40
Properties=species:S:1:pos:R:3 #=T CELL(abcABC):=T 1.889726e+02=T 90.00000=T Traj:=T positionsangstrom=T Step:=T 0=T Bead:=T pbc="F F F"
C      -45.22720000     -30.74240000     -71.08010000
C      -43.97770000     -31.34850000     -71.13520000
C      -43.49560000     -31.94230000     -72.34050000
C      -44.30040000     -31.91860000     -73.46580000
C      -45.58590000     -31.32570000     -73.32520000
C      -46.06570000     -30.67590000     -72.15620000
H      -45.63210000     -30.23530000     -70.17380000
H      -42.49310000     -32.30750000     -72.39730000
H      -46.25940000     -31.39220000     -74.19190000
H      -47.07830000     -30.30430000     -72.04350000
C      -43.87880000     -32.60820000     -74.77140000
H      -42.83420000     -32.89070000     -74.70450000
H      -43.95480000     -32.00070000     -75.64150000
C      -43.01070000     -31.09150000     -69.98850000
H      -42.03910000     -31.11360000     -70.36530000
H      -43.12540000     -30.05550000     -69.57760000
S      -45.02640000     -34.04140000     -75.13470000
S      -43.21710000     -32.31310000     -68.60540000
C      -44.34860000     -35.44290000     -74.02800000
H      -44.90250000     -36.30390000     -74.41130000
H      -43.29440000     -35.57390000     -74.33300000
C      -42.76920000     -33.89180000     -69.52680000
H      -41.72120000     -34.30160000     -69.30250000
H      -42.85510000     -33.70230000     -70.60980000
C      -43.79790000     -35.07260000     -69.20310000
H      -43.69040000     -35.94760000     -69.87290000
H      -43.64180000     -35.49090000     -68.21110000
C      -44.49450000     -35.15910000     -72.51710000
H      -43.84820000     -34.37070000     -72.24090000
H      -43.91750000     -35.93590000     -72.06210000
C      -45.90470000     -34.88870000     -71.87370000
C      -47.05930000     -34.71100000     -72.60060000
C      -46.16670000     -34.53100000     -70.48290000
H      -47.29570000     -34.94780000     -73.65270000
C      -47.47270000     -34.14300000     -70.21770000
C      -45.27790000     -34.70240000     -69.33020000
C      -46.00380000     -34.38380000     -68.21290000
S      -48.44460000     -34.18900000     -71.65430000
S      -47.71750000     -33.82670000     -68.48270000
H      -45.61200000     -34.45740000     -67.29410000
