40
Properties=species:S:1:pos:R:3 #=T CELL(abcABC):=T 1.889726e+02=T 90.00000=T Traj:=T positionsangstrom=T Step:=T 0=T Bead:=T pbc="F F F"
C      -46.63940000     -34.75220000     -69.92510000
C      -47.25580000     -34.59270000     -71.20490000
C      -46.67400000     -35.24860000     -72.31480000
C      -45.43350000     -35.83050000     -72.25980000
C      -44.76830000     -35.82020000     -71.03720000
C      -45.36930000     -35.31590000     -69.84650000
H      -47.17780000     -34.34640000     -69.00870000
H      -47.23510000     -35.27040000     -73.30330000
H      -43.84770000     -36.31110000     -70.93700000
H      -44.78100000     -35.30680000     -68.91810000
C      -44.67910000     -36.36120000     -73.48000000
H      -45.04310000     -37.30100000     -73.92650000
H      -43.67170000     -36.70330000     -73.17620000
C      -48.62870000     -33.98360000     -71.29830000
H      -48.75680000     -33.61960000     -72.38680000
H      -49.40810000     -34.62130000     -71.02810000
S      -44.53010000     -35.24120000     -74.94030000
S      -48.91010000     -32.51830000     -70.21020000
C      -43.36750000     -33.85350000     -74.29290000
H      -42.69000000     -34.32190000     -73.64620000
H      -42.89310000     -33.50880000     -75.23890000
C      -48.17660000     -31.09810000     -71.30430000
H      -48.09930000     -30.28490000     -70.60440000
H      -48.90820000     -30.76950000     -72.08400000
C      -46.83620000     -31.55430000     -71.76100000
H      -47.01580000     -32.46560000     -72.32930000
H      -46.39650000     -30.85320000     -72.54660000
C      -44.13300000     -32.74670000     -73.51810000
H      -45.18270000     -32.96490000     -73.45010000
H      -44.06060000     -31.78320000     -74.06140000
C      -43.63380000     -32.57230000     -72.09940000
C      -42.31640000     -32.78200000     -71.76330000
C      -44.38400000     -32.13930000     -70.92270000
H      -41.52890000     -33.07890000     -72.46430000
C      -43.69220000     -32.25440000     -69.67320000
C      -45.78850000     -31.78410000     -70.69330000
C      -46.02780000     -31.43440000     -69.40630000
S      -42.03970000     -32.72730000     -69.96030000
S      -44.64150000     -31.70430000     -68.34300000
H      -46.94400000     -31.07360000     -68.93970000
