40
Properties=species:S:1:pos:R:3 #=T CELL(abcABC):=T 1.889726e+02=T 90.00000=T Traj:=T positionsangstrom=T Step:=T 0=T Bead:=T pbc="F F F"
C      -44.68240000     -33.78540000     -69.00700000
C      -45.91950000     -33.24850000     -68.65950000
C      -47.08780000     -33.86470000     -68.98620000
C      -47.09810000     -35.10630000     -69.67870000
C      -45.87810000     -35.63940000     -70.09000000
C      -44.67090000     -35.04970000     -69.68490000
H      -43.80720000     -33.22360000     -69.01210000
H      -48.04210000     -33.37030000     -68.75090000
H      -45.87950000     -36.50320000     -70.73590000
H      -43.77660000     -35.58710000     -70.04120000
C      -48.45380000     -35.78310000     -70.17850000
H      -49.23300000     -35.53840000     -69.47890000
H      -48.33310000     -36.87270000     -70.21630000
C      -45.92250000     -31.81730000     -68.01040000
H      -46.97940000     -31.41890000     -67.91760000
H      -45.49610000     -31.98970000     -67.06020000
S      -49.02560000     -35.23980000     -71.87240000
S      -44.90300000     -30.55580000     -68.90120000
C      -47.42030000     -35.37760000     -72.86620000
H      -46.79580000     -36.04600000     -72.30280000
H      -47.70990000     -35.85100000     -73.80440000
C      -45.85340000     -30.18910000     -70.36660000
H      -45.49250000     -29.24860000     -70.76320000
H      -46.89300000     -30.14590000     -70.08110000
C      -45.93010000     -31.25300000     -71.53070000
H      -46.46000000     -32.11460000     -71.11100000
H      -46.54650000     -30.87320000     -72.33530000
C      -46.71980000     -34.03340000     -73.03340000
H      -46.95030000     -33.43290000     -72.14970000
H      -47.15800000     -33.49390000     -73.85340000
C      -45.18550000     -34.13270000     -73.21120000
C      -44.44220000     -35.17570000     -73.70930000
C      -44.39970000     -33.00080000     -72.78770000
H      -44.88970000     -36.04550000     -74.20660000
C      -43.06890000     -33.19750000     -73.06410000
C      -44.61750000     -31.77200000     -72.07380000
C      -43.48550000     -31.03150000     -71.91630000
S      -42.67650000     -34.76650000     -73.82360000
S      -42.05670000     -31.96290000     -72.55590000
H      -43.50670000     -30.14430000     -71.24160000
