40
Properties=species:S:1:pos:R:3 #=T CELL(abcABC):=T 1.889726e+02=T 90.00000=T Traj:=T positionsangstrom=T Step:=T 0=T Bead:=T pbc="F F F"
C      -42.24450000     -32.11550000     -73.33880000
C      -42.24380000     -32.38290000     -71.93720000
C      -43.06730000     -31.50630000     -71.09500000
C      -43.87330000     -30.54390000     -71.75210000
C      -43.84210000     -30.30660000     -73.12780000
C      -43.00650000     -31.10940000     -73.91360000
H      -41.60520000     -32.69830000     -73.87560000
H      -43.07220000     -31.69990000     -70.01310000
H      -44.44250000     -29.46380000     -73.50640000
H      -42.87120000     -30.90730000     -74.92190000
C      -44.77080000     -29.51700000     -70.98720000
H      -45.67710000     -29.30560000     -71.60000000
H      -44.22850000     -28.55500000     -70.87350000
C      -41.43410000     -33.46200000     -71.28930000
H      -40.36970000     -33.29210000     -71.48110000
H      -41.66860000     -33.73700000     -70.23100000
S      -45.33360000     -30.04330000     -69.31110000
S      -41.61840000     -35.00310000     -72.23940000
C      -46.83920000     -30.99130000     -69.82670000
H      -47.35470000     -31.37670000     -68.90190000
H      -47.54440000     -30.25690000     -70.32900000
C      -43.32210000     -35.48060000     -71.70540000
H      -43.35050000     -35.39090000     -70.59950000
H      -43.42300000     -36.54630000     -71.94670000
C      -44.56110000     -34.71400000     -72.17980000
H      -44.41700000     -33.67320000     -71.89920000
H      -44.62480000     -34.85520000     -73.30120000
C      -46.33330000     -32.12560000     -70.72040000
H      -45.39470000     -32.57370000     -70.37980000
H      -46.25310000     -31.65770000     -71.68190000
C      -47.35980000     -33.31080000     -70.70170000
C      -48.68490000     -33.19470000     -70.28960000
C      -47.00850000     -34.67510000     -71.04340000
H      -49.11750000     -32.29530000     -69.83050000
C      -48.12950000     -35.53780000     -70.87550000
C      -45.82630000     -35.37270000     -71.59530000
C      -46.10880000     -36.65900000     -71.77740000
S      -49.58020000     -34.71910000     -70.39220000
S      -47.73330000     -37.18570000     -71.33370000
H      -45.39620000     -37.35920000     -72.17740000
