40
Properties=species:S:1:pos:R:3 #=T CELL(abcABC):=T 1.889726e+02=T 90.00000=T Traj:=T positionsangstrom=T Step:=T 0=T Bead:=T pbc="F F F"
C      -42.16440000     -32.22320000     -72.98860000
C      -42.34250000     -32.29870000     -71.55700000
C      -42.99770000     -31.27360000     -70.87330000
C      -43.73730000     -30.33860000     -71.61740000
C      -43.66990000     -30.31430000     -73.03240000
C      -42.85140000     -31.25090000     -73.64640000
H      -41.57200000     -33.03090000     -73.37400000
H      -43.04480000     -31.35070000     -69.78830000
H      -44.18380000     -29.49080000     -73.54020000
H      -42.78300000     -31.01210000     -74.69360000
C      -44.67690000     -29.36740000     -70.87860000
H      -45.46250000     -28.96000000     -71.51160000
H      -44.08770000     -28.48630000     -70.54440000
C      -41.65950000     -33.42470000     -70.83550000
H      -40.57800000     -33.22270000     -70.64980000
H      -42.06690000     -33.46960000     -69.80400000
S      -45.45180000     -29.87150000     -69.30240000
S      -41.68640000     -35.08770000     -71.75390000
C      -46.72820000     -31.07410000     -70.00120000
H      -47.53740000     -31.09890000     -69.31240000
H      -46.98100000     -30.71570000     -71.00740000
C      -43.37900000     -35.77200000     -71.55180000
H      -43.55220000     -36.01950000     -70.47150000
H      -43.39980000     -36.84840000     -71.97740000
C      -44.48120000     -34.83420000     -72.18290000
H      -44.26920000     -33.81600000     -71.91980000
H      -44.21130000     -34.69450000     -73.25750000
C      -46.14220000     -32.54920000     -70.00810000
H      -45.78960000     -32.83700000     -69.04010000
H      -45.34860000     -32.57970000     -70.72260000
C      -47.23190000     -33.48040000     -70.49870000
C      -48.57220000     -33.35830000     -70.18170000
C      -47.00340000     -34.66470000     -71.30580000
H      -49.00340000     -32.62250000     -69.44130000
C      -48.13950000     -35.52690000     -71.35860000
C      -45.88290000     -35.29640000     -71.95460000
C      -46.21020000     -36.53150000     -72.43820000
S      -49.59040000     -34.67090000     -70.78260000
S      -47.87390000     -37.04460000     -72.01700000
H      -45.58020000     -37.34420000     -72.89910000
