40
Properties=species:S:1:pos:R:3 #=T CELL(abcABC):=T 1.889726e+02=T 90.00000=T Traj:=T positionsangstrom=T Step:=T 0=T Bead:=T pbc="F F F"
C      -46.00770000     -34.72000000     -74.93020000
C      -44.81510000     -34.05190000     -74.62350000
C      -43.89050000     -34.63680000     -73.78720000
C      -44.15530000     -35.94570000     -73.27020000
C      -45.36460000     -36.56920000     -73.57730000
C      -46.26770000     -35.95240000     -74.33310000
H      -46.75010000     -34.34610000     -75.69100000
H      -42.93480000     -34.12990000     -73.59510000
H      -45.62750000     -37.64250000     -73.15060000
H      -47.11690000     -36.48370000     -74.67600000
C      -43.21840000     -36.66310000     -72.34500000
H      -42.30960000     -36.96090000     -72.85590000
H      -43.82120000     -37.55880000     -71.94020000
C      -44.47560000     -32.69520000     -75.24570000
H      -43.70910000     -32.81180000     -75.98820000
H      -45.30680000     -32.19780000     -75.75310000
S      -42.62580000     -35.62660000     -70.90530000
S      -43.71560000     -31.44820000     -74.10810000
C      -44.18230000     -35.26750000     -69.96530000
H      -44.93700000     -35.25080000     -70.71930000
H      -44.38240000     -36.18220000     -69.44600000
C      -45.15390000     -31.28930000     -72.94550000
H      -46.01160000     -31.22330000     -73.63400000
H      -44.99580000     -30.31150000     -72.48070000
C      -45.30780000     -32.42450000     -71.82690000
H      -45.70760000     -33.38200000     -72.30290000
H      -44.21580000     -32.59190000     -71.47850000
C      -44.01440000     -34.00410000     -69.21770000
H      -43.38560000     -33.26610000     -69.66920000
H      -43.39570000     -34.16430000     -68.33060000
C      -45.25220000     -33.24310000     -68.63520000
C      -45.65470000     -33.31510000     -67.38330000
C      -46.16530000     -32.43370000     -69.45160000
H      -45.09610000     -33.92380000     -66.70440000
C      -47.19360000     -31.94640000     -68.65970000
C      -46.35460000     -32.01120000     -70.78600000
C      -47.46450000     -31.19870000     -70.99410000
S      -47.01890000     -32.35400000     -66.94670000
S      -48.34430000     -30.90660000     -69.48360000
H      -47.72200000     -30.62290000     -71.90610000
