40
Properties=species:S:1:pos:R:3 #=T CELL(abcABC):=T 1.889726e+02=T 90.00000=T Traj:=T positionsangstrom=T Step:=T 0=T Bead:=T pbc="F F F"
C      -42.14070000     -32.28910000     -72.97560000
C      -42.18320000     -32.35340000     -71.58790000
C      -43.00670000     -31.47450000     -70.88410000
C      -43.70380000     -30.40320000     -71.54420000
C      -43.66770000     -30.42810000     -72.95700000
C      -42.88950000     -31.37030000     -73.65750000
H      -41.34850000     -32.97300000     -73.46620000
H      -42.90090000     -31.48330000     -69.80040000
H      -44.25890000     -29.68450000     -73.53980000
H      -42.92800000     -31.23250000     -74.77460000
C      -44.62870000     -29.45300000     -70.90840000
H      -45.34150000     -29.08310000     -71.64020000
H      -43.91730000     -28.64320000     -70.52740000
C      -41.24530000     -33.30090000     -70.95210000
H      -40.33720000     -33.20700000     -71.57030000
H      -41.17970000     -32.94910000     -69.90620000
S      -45.54570000     -29.98380000     -69.33580000
S      -41.71870000     -35.19460000     -70.98590000
C      -46.85470000     -31.01370000     -70.03410000
H      -47.44680000     -31.30200000     -69.17100000
H      -47.47960000     -30.43390000     -70.77420000
C      -43.59260000     -35.20230000     -70.75620000
H      -43.89300000     -34.69190000     -69.87340000
H      -43.93260000     -36.21800000     -70.62440000
C      -44.47980000     -34.72940000     -72.06370000
H      -44.55020000     -33.69320000     -71.96150000
H      -43.92680000     -35.11010000     -72.89070000
C      -46.26940000     -32.31530000     -70.57580000
H      -45.49850000     -32.61430000     -69.85100000
H      -45.74060000     -32.23450000     -71.53790000
C      -47.29280000     -33.40840000     -70.79010000
C      -48.65610000     -33.20330000     -70.47620000
C      -47.08470000     -34.65810000     -71.50910000
H      -49.19760000     -32.42810000     -69.94450000
C      -48.17580000     -35.50040000     -71.60580000
C      -45.86560000     -35.33940000     -71.98980000
C      -46.12280000     -36.60180000     -72.51390000
S      -49.52310000     -34.70690000     -70.77320000
S      -47.82370000     -37.06290000     -72.40940000
H      -45.42200000     -37.28790000     -72.90980000
