40
Properties=species:S:1:pos:R:3 #=T CELL(abcABC):=T 1.889726e+02=T 90.00000=T Traj:=T positionsangstrom=T Step:=T 0=T Bead:=T pbc="F F F"
C      -41.84380000     -32.43030000     -72.77750000
C      -41.95000000     -32.29840000     -71.37810000
C      -42.91690000     -31.41450000     -70.89930000
C      -43.65880000     -30.54430000     -71.71550000
C      -43.71170000     -30.81250000     -73.09430000
C      -42.75860000     -31.75850000     -73.61130000
H      -41.15290000     -33.18900000     -73.24770000
H      -43.17250000     -31.28920000     -69.85640000
H      -44.31840000     -30.22490000     -73.77850000
H      -42.66090000     -31.87050000     -74.68600000
C      -44.49630000     -29.41910000     -71.06130000
H      -45.32790000     -29.10620000     -71.86170000
H      -43.92450000     -28.47200000     -70.95710000
C      -41.21820000     -33.27590000     -70.40690000
H      -40.25430000     -33.59090000     -70.78050000
H      -41.04990000     -32.91400000     -69.43710000
S      -45.43890000     -29.76260000     -69.54180000
S      -41.97700000     -34.97680000     -70.39240000
C      -46.56580000     -31.32800000     -69.85030000
H      -46.36680000     -31.95300000     -68.93810000
H      -47.52230000     -30.75890000     -69.62550000
C      -43.80040000     -34.91040000     -70.35410000
H      -44.21780000     -34.02050000     -69.77860000
H      -44.09700000     -35.85750000     -69.95000000
C      -44.41020000     -34.80830000     -71.81630000
H      -44.25560000     -33.80680000     -72.06760000
H      -43.72250000     -35.44160000     -72.42810000
C      -46.56910000     -32.09510000     -71.18690000
H      -45.56920000     -32.44110000     -71.48640000
H      -46.87470000     -31.37340000     -71.94110000
C      -47.48260000     -33.30650000     -71.19050000
C      -48.85280000     -33.24580000     -71.01360000
C      -47.03690000     -34.69890000     -71.53390000
H      -49.25820000     -32.24950000     -70.72740000
C      -48.15870000     -35.48010000     -71.85050000
C      -45.79980000     -35.36760000     -71.90690000
C      -46.05070000     -36.69620000     -72.15890000
S      -49.66920000     -34.73870000     -71.39100000
S      -47.75070000     -37.13230000     -72.19660000
H      -45.30410000     -37.37810000     -72.36440000
