40
Properties=species:S:1:pos:R:3 #=T CELL(abcABC):=T 1.889726e+02=T 90.00000=T Traj:=T positionsangstrom=T Step:=T 0=T Bead:=T pbc="F F F"
C      -47.75740000     -30.39680000     -69.16960000
C      -47.00880000     -30.63070000     -70.29790000
C      -47.49120000     -31.58180000     -71.23110000
C      -48.73680000     -32.23250000     -71.02140000
C      -49.57030000     -31.79860000     -69.95480000
C      -49.05540000     -30.93270000     -69.03750000
H      -47.35100000     -29.93550000     -68.29310000
H      -46.88370000     -31.79300000     -72.12620000
H      -50.44320000     -32.41250000     -69.73920000
H      -49.67750000     -30.64600000     -68.20160000
C      -49.30610000     -33.19850000     -71.98510000
H      -48.96590000     -33.00790000     -73.01810000
H      -50.40430000     -33.12600000     -72.04530000
C      -45.79440000     -29.77240000     -70.71130000
H      -45.41970000     -30.09380000     -71.66860000
H      -46.11230000     -28.73120000     -70.71920000
S      -48.81080000     -34.94100000     -71.45570000
S      -44.37730000     -29.97660000     -69.56080000
C      -47.25930000     -35.38840000     -72.34040000
H      -47.23790000     -36.40420000     -72.59460000
H      -47.24170000     -34.75640000     -73.22140000
C      -43.30510000     -31.31350000     -70.25970000
H      -42.36260000     -31.38080000     -69.67720000
H      -43.06460000     -31.23100000     -71.33310000
C      -44.01530000     -32.74110000     -70.22840000
H      -44.15920000     -33.14470000     -69.18350000
H      -44.98960000     -32.50890000     -70.68260000
C      -46.04980000     -35.15800000     -71.48250000
H      -46.11170000     -35.69060000     -70.50970000
H      -46.03410000     -34.16830000     -71.10040000
C      -44.72900000     -35.39430000     -72.22290000
C      -44.56040000     -36.33050000     -73.19710000
C      -43.49710000     -34.86550000     -71.85340000
H      -45.32530000     -36.91270000     -73.74130000
C      -42.45500000     -35.48780000     -72.47350000
C      -43.09300000     -33.71530000     -70.97820000
C      -41.70800000     -33.66170000     -70.97250000
S      -42.88280000     -36.58100000     -73.77340000
S      -40.91720000     -34.75550000     -72.04970000
H      -41.11310000     -32.87340000     -70.47240000
