40
Properties=species:S:1:pos:R:3 #=T CELL(abcABC):=T 1.889726e+02=T 90.00000=T Traj:=T positionsangstrom=T Step:=T 0=T Bead:=T pbc="F F F"
C      -47.81470000     -30.46060000     -69.05540000
C      -47.13480000     -30.40420000     -70.33210000
C      -47.61010000     -31.26160000     -71.31630000
C      -48.81180000     -32.09250000     -71.05700000
C      -49.42450000     -32.06390000     -69.79710000
C      -48.95670000     -31.19660000     -68.79280000
H      -47.53850000     -29.74880000     -68.35230000
H      -47.16990000     -31.34360000     -72.32900000
H      -50.34040000     -32.50780000     -69.70290000
H      -49.31950000     -31.21430000     -67.79060000
C      -49.20810000     -33.14500000     -72.07790000
H      -48.53000000     -33.03700000     -72.95850000
H      -50.21940000     -33.02110000     -72.40160000
C      -45.85020000     -29.72140000     -70.68510000
H      -45.48510000     -29.84130000     -71.73050000
H      -45.99250000     -28.64010000     -70.38430000
S      -48.90790000     -34.84980000     -71.40070000
S      -44.36610000     -30.13330000     -69.54640000
C      -47.39370000     -35.37070000     -72.30470000
H      -47.52010000     -36.47530000     -72.39990000
H      -47.33980000     -34.93370000     -73.36550000
C      -43.26870000     -31.40990000     -70.36340000
H      -42.37920000     -31.27070000     -69.82880000
H      -43.03850000     -31.07200000     -71.34930000
C      -43.85150000     -32.82070000     -70.17970000
H      -43.86260000     -33.11990000     -69.16520000
H      -44.87640000     -32.95290000     -70.54010000
C      -46.10790000     -35.01510000     -71.50590000
H      -46.10220000     -35.66960000     -70.62170000
H      -46.19100000     -33.94260000     -71.19930000
C      -44.76080000     -35.26670000     -72.26370000
C      -44.66130000     -36.07750000     -73.33730000
C      -43.45230000     -34.80730000     -71.89800000
H      -45.47620000     -36.57180000     -73.80960000
C      -42.43740000     -35.45910000     -72.57790000
C      -42.95120000     -33.83870000     -70.90930000
C      -41.52500000     -33.82730000     -70.86650000
S      -42.96690000     -36.44040000     -73.87650000
S      -40.82970000     -34.97020000     -72.05970000
H      -40.93630000     -33.31390000     -70.16520000
