40
Properties=species:S:1:pos:R:3 #=T CELL(abcABC):=T 1.889726e+02=T 90.00000=T Traj:=T positionsangstrom=T Step:=T 0=T Bead:=T pbc="F F F"
C      -45.95890000     -34.70570000     -74.98840000
C      -44.72840000     -34.04000000     -74.71130000
C      -43.81920000     -34.72280000     -73.79730000
C      -44.11530000     -36.01670000     -73.30310000
C      -45.37910000     -36.55550000     -73.65390000
C      -46.30980000     -35.90290000     -74.45610000
H      -46.69000000     -34.03190000     -75.42110000
H      -42.89990000     -34.11420000     -73.58730000
H      -45.89380000     -37.46550000     -73.17180000
H      -47.28190000     -36.32690000     -74.49440000
C      -43.21310000     -36.68840000     -72.33340000
H      -42.44560000     -37.13920000     -72.87370000
H      -43.76110000     -37.59440000     -71.90110000
C      -44.26370000     -32.78610000     -75.36780000
H      -43.30040000     -33.00620000     -75.92990000
H      -45.05640000     -32.47170000     -76.06870000
S      -42.67250000     -35.67980000     -70.95150000
S      -43.87620000     -31.38770000     -74.14150000
C      -44.25140000     -35.18020000     -70.04830000
H      -45.11150000     -34.89030000     -70.74210000
H      -44.57480000     -35.92850000     -69.34300000
C      -45.37400000     -31.14700000     -73.09650000
H      -46.30750000     -31.23440000     -73.63570000
H      -45.25360000     -30.14440000     -72.65470000
C      -45.25790000     -32.22190000     -71.85300000
H      -45.51700000     -33.14720000     -72.27900000
H      -44.25200000     -32.28680000     -71.46100000
C      -44.00220000     -33.90260000     -69.16270000
H      -43.41790000     -33.30280000     -69.84940000
H      -43.29650000     -34.21150000     -68.32290000
C      -45.24200000     -33.32830000     -68.52600000
C      -45.59560000     -33.39290000     -67.25480000
C      -46.17620000     -32.49780000     -69.32560000
H      -45.00710000     -34.04110000     -66.54660000
C      -47.23760000     -32.00020000     -68.57640000
C      -46.25500000     -31.98600000     -70.71570000
C      -47.27220000     -31.07480000     -70.90490000
S      -47.06410000     -32.45450000     -66.90660000
S      -48.27040000     -30.93330000     -69.41590000
H      -47.47200000     -30.49700000     -71.77130000
