40
Properties=species:S:1:pos:R:3 #=T CELL(abcABC):=T 1.889726e+02=T 90.00000=T Traj:=T positionsangstrom=T Step:=T 0=T Bead:=T pbc="F F F"
C      -41.66940000     -32.48950000     -72.14180000
C      -42.21800000     -32.25860000     -70.89630000
C      -43.06400000     -31.19060000     -70.68070000
C      -43.50620000     -30.42490000     -71.72810000
C      -42.91610000     -30.69670000     -72.97730000
C      -42.00950000     -31.72060000     -73.20620000
H      -41.03020000     -33.37860000     -72.31960000
H      -43.39570000     -30.88120000     -69.66050000
H      -43.31070000     -30.13830000     -73.81610000
H      -41.58820000     -31.87520000     -74.13730000
C      -44.64810000     -29.47940000     -71.49760000
H      -45.25040000     -29.48770000     -72.37650000
H      -44.21410000     -28.47250000     -71.46500000
C      -41.83260000     -33.17130000     -69.72890000
H      -40.69230000     -33.09700000     -69.57940000
H      -42.29440000     -32.91880000     -68.82240000
S      -45.64040000     -29.87170000     -70.06530000
S      -42.23740000     -34.98250000     -69.81620000
C      -46.70480000     -31.26110000     -70.47650000
H      -46.90760000     -31.75440000     -69.49200000
H      -47.65810000     -30.84440000     -70.81780000
C      -44.05850000     -34.92320000     -70.00860000
H      -44.44230000     -33.91180000     -69.73160000
H      -44.53590000     -35.73890000     -69.42720000
C      -44.40780000     -35.23340000     -71.44320000
H      -44.06950000     -34.29400000     -71.98150000
H      -43.75020000     -36.01420000     -71.81050000
C      -46.19210000     -32.23220000     -71.52890000
H      -45.24410000     -32.65860000     -71.18600000
H      -46.04990000     -31.62000000     -72.42120000
C      -47.18680000     -33.29440000     -71.82910000
C      -48.51130000     -32.97970000     -72.00490000
C      -46.98890000     -34.71890000     -71.71920000
H      -49.00640000     -31.99100000     -72.18310000
C      -48.13460000     -35.44830000     -71.96750000
C      -45.84000000     -35.59150000     -71.60850000
C      -46.18730000     -36.94490000     -71.67690000
S      -49.50080000     -34.44120000     -72.01690000
S      -47.91340000     -37.22490000     -71.91510000
H      -45.45970000     -37.71320000     -71.58140000
