40
Properties=species:S:1:pos:R:3 #=T CELL(abcABC):=T 1.889726e+02=T 90.00000=T Traj:=T positionsangstrom=T Step:=T 0=T Bead:=T pbc="F F F"
C      -41.53590000     -32.50200000     -72.11910000
C      -42.04380000     -32.23620000     -70.78770000
C      -43.06860000     -31.31550000     -70.62830000
C      -43.48730000     -30.54470000     -71.69890000
C      -42.94590000     -30.86860000     -72.95820000
C      -42.10470000     -31.91850000     -73.22120000
H      -40.76790000     -33.24850000     -72.27100000
H      -43.55800000     -31.23850000     -69.72650000
H      -43.25380000     -30.29300000     -73.85930000
H      -41.81230000     -32.05020000     -74.29750000
C      -44.39490000     -29.39880000     -71.53910000
H      -44.92680000     -29.14230000     -72.46860000
H      -43.85230000     -28.49210000     -71.16190000
C      -41.61830000     -33.07750000     -69.61550000
H      -40.51840000     -33.11180000     -69.61140000
H      -41.84560000     -32.55960000     -68.67880000
S      -45.64890000     -29.68480000     -70.10130000
S      -42.19200000     -34.87760000     -69.61200000
C      -46.80480000     -31.00650000     -70.67290000
H      -47.22520000     -31.31600000     -69.70640000
H      -47.53920000     -30.46270000     -71.33350000
C      -44.01130000     -34.92920000     -69.92700000
H      -44.52650000     -34.03010000     -69.55390000
H      -44.37410000     -35.71930000     -69.31540000
C      -44.40210000     -35.15900000     -71.38090000
H      -44.27390000     -34.29900000     -72.03440000
H      -43.88560000     -36.01460000     -71.72680000
C      -46.24740000     -32.21400000     -71.43260000
H      -45.32670000     -32.63000000     -71.02720000
H      -45.82340000     -31.93230000     -72.40210000
C      -47.37160000     -33.28360000     -71.67040000
C      -48.69890000     -33.08160000     -71.97670000
C      -47.07040000     -34.73110000     -71.79960000
H      -49.19850000     -32.14770000     -71.66790000
C      -48.15870000     -35.51500000     -72.03950000
C      -45.88700000     -35.58720000     -71.55600000
C      -46.18830000     -36.96020000     -71.64220000
S      -49.57690000     -34.56080000     -72.33750000
S      -47.90840000     -37.30320000     -71.94520000
H      -45.53110000     -37.87130000     -71.57140000
