40
Properties=species:S:1:pos:R:3 #=T CELL(abcABC):=T 1.889726e+02=T 90.00000=T Traj:=T positionsangstrom=T Step:=T 0=T Bead:=T pbc="F F F"
C      -41.61050000     -32.70710000     -71.99430000
C      -42.00200000     -32.32050000     -70.72810000
C      -42.93420000     -31.30090000     -70.60410000
C      -43.46340000     -30.70120000     -71.70860000
C      -42.98200000     -30.99810000     -72.99250000
C      -42.05070000     -32.00190000     -73.12940000
H      -40.88160000     -33.43500000     -72.10680000
H      -43.34540000     -31.02760000     -69.65140000
H      -43.27080000     -30.59270000     -73.97710000
H      -41.81980000     -32.37480000     -74.18190000
C      -44.57550000     -29.63020000     -71.57290000
H      -45.10630000     -29.52230000     -72.53190000
H      -44.20840000     -28.61120000     -71.41050000
C      -41.58490000     -33.12120000     -69.52200000
H      -40.52100000     -33.17060000     -69.38040000
H      -42.11480000     -32.64810000     -68.61680000
S      -45.81670000     -29.74820000     -70.26150000
S      -42.10960000     -34.88990000     -69.50360000
C      -47.06960000     -30.81820000     -71.15300000
H      -47.98290000     -30.83550000     -70.61130000
H      -47.40100000     -30.45220000     -72.07970000
C      -43.94890000     -34.75320000     -69.75360000
H      -44.20290000     -33.70440000     -69.44200000
H      -44.49950000     -35.38400000     -69.00520000
C      -44.41630000     -35.02220000     -71.22080000
H      -44.18420000     -34.06910000     -71.74530000
H      -43.73510000     -35.81520000     -71.66350000
C      -46.42930000     -32.20700000     -71.18790000
H      -46.10200000     -32.46590000     -70.15850000
H      -45.50400000     -32.12080000     -71.82720000
C      -47.37960000     -33.25220000     -71.67940000
C      -48.63650000     -33.06450000     -72.13710000
C      -47.01620000     -34.69520000     -71.70550000
H      -49.14680000     -32.11370000     -72.20650000
C      -48.10510000     -35.46720000     -71.98580000
C      -45.83440000     -35.48300000     -71.38700000
C      -46.12320000     -36.84320000     -71.58020000
S      -49.50440000     -34.55410000     -72.47030000
S      -47.80890000     -37.22650000     -72.00630000
H      -45.51040000     -37.77190000     -71.43640000
