40
Properties=species:S:1:pos:R:3 #=T CELL(abcABC):=T 1.889726e+02=T 90.00000=T Traj:=T positionsangstrom=T Step:=T 0=T Bead:=T pbc="F F F"
C      -42.06340000     -32.92480000     -71.67520000
C      -42.51290000     -32.33600000     -70.50090000
C      -43.34700000     -31.18030000     -70.58780000
C      -43.62470000     -30.63160000     -71.84470000
C      -43.25260000     -31.29080000     -72.99740000
C      -42.46950000     -32.44380000     -72.90330000
H      -41.49820000     -33.82730000     -71.48190000
H      -43.62610000     -30.63740000     -69.63090000
H      -43.62870000     -30.81140000     -73.88240000
H      -42.29810000     -33.15790000     -73.65670000
C      -44.38550000     -29.34230000     -71.92800000
H      -44.66090000     -29.17920000     -72.93050000
H      -43.87040000     -28.48280000     -71.58820000
C      -42.09710000     -32.83500000     -69.15360000
H      -41.04610000     -32.73880000     -69.11510000
H      -42.61960000     -32.37800000     -68.32870000
S      -45.93290000     -29.48350000     -70.92430000
S      -42.44120000     -34.68660000     -68.78130000
C      -46.70650000     -30.95030000     -71.67900000
H      -47.82920000     -30.81930000     -71.56980000
H      -46.60340000     -30.90580000     -72.82340000
C      -44.21230000     -34.99010000     -69.27200000
H      -44.78690000     -34.15080000     -68.77700000
H      -44.48810000     -35.99640000     -68.84200000
C      -44.32600000     -34.93060000     -70.82250000
H      -44.35510000     -33.87180000     -71.05810000
H      -43.45320000     -35.44610000     -71.19830000
C      -46.33250000     -32.26610000     -71.09620000
H      -46.40390000     -32.20540000     -70.00500000
H      -45.29280000     -32.40020000     -71.48420000
C      -47.15380000     -33.35770000     -71.66200000
C      -48.42500000     -33.12970000     -72.06210000
C      -46.76140000     -34.77230000     -71.68260000
H      -48.97810000     -32.22940000     -72.13680000
C      -47.82040000     -35.56010000     -72.16450000
C      -45.57670000     -35.51010000     -71.44370000
C      -45.70220000     -36.83700000     -71.83810000
S      -49.32230000     -34.64900000     -72.45920000
S      -47.29300000     -37.24620000     -72.40130000
H      -44.81790000     -37.37780000     -71.88320000
