40
Properties=species:S:1:pos:R:3 #=T CELL(abcABC):=T 1.889726e+02=T 90.00000=T Traj:=T positionsangstrom=T Step:=T 0=T Bead:=T pbc="F F F"
C      -44.41310000     -36.00950000     -74.94730000
C      -44.53250000     -36.06710000     -73.54600000
C      -43.60490000     -35.31680000     -72.79700000
C      -42.62260000     -34.58270000     -73.36990000
C      -42.51960000     -34.52890000     -74.80050000
C      -43.38900000     -35.24020000     -75.60540000
H      -45.15890000     -36.42920000     -75.65840000
H      -43.66860000     -35.30860000     -71.62200000
H      -41.56800000     -34.02800000     -75.28870000
H      -43.29390000     -35.18910000     -76.70260000
C      -41.58360000     -33.74390000     -72.58500000
H      -40.79380000     -33.34990000     -73.33530000
H      -40.95720000     -34.30010000     -71.93060000
C      -45.50000000     -36.92690000     -72.81220000
H      -45.60160000     -37.84000000     -73.31240000
H      -45.15440000     -36.99800000     -71.81760000
S      -42.17780000     -32.39930000     -71.35600000
S      -47.26150000     -36.07530000     -72.77810000
C      -43.63740000     -31.78190000     -72.40190000
H      -43.68960000     -30.68080000     -72.30250000
H      -43.47970000     -32.09700000     -73.50290000
C      -47.09590000     -35.11080000     -71.12820000
H      -46.00960000     -34.91870000     -71.02720000
H      -47.34180000     -35.65570000     -70.23180000
C      -47.94990000     -33.85160000     -71.20250000
H      -47.69350000     -33.19780000     -72.01190000
H      -48.96090000     -34.15950000     -71.40640000
C      -44.98150000     -32.35790000     -71.86040000
H      -44.89670000     -33.44260000     -71.70140000
H      -45.71950000     -32.35260000     -72.72290000
C      -45.49600000     -31.72320000     -70.60070000
C      -44.80050000     -30.70560000     -70.01760000
C      -46.61720000     -32.16020000     -69.80840000
H      -43.91900000     -30.29480000     -70.39230000
C      -46.65430000     -31.45460000     -68.56040000
C      -47.74510000     -33.03120000     -69.95120000
C      -48.53640000     -33.02440000     -68.86880000
S      -45.43220000     -30.26830000     -68.43070000
S      -48.05830000     -31.84600000     -67.69200000
H      -49.36690000     -33.68860000     -68.72170000
