40
Properties=species:S:1:pos:R:3 #=T CELL(abcABC):=T 1.889726e+02=T 90.00000=T Traj:=T positionsangstrom=T Step:=T 0=T Bead:=T pbc="F F F"
C      -43.95230000     -36.70110000     -72.67390000
C      -43.13690000     -35.52800000     -72.79190000
C      -42.69330000     -35.00590000     -71.57810000
C      -42.96590000     -35.50430000     -70.28160000
C      -43.70500000     -36.74330000     -70.24770000
C      -44.21670000     -37.26000000     -71.40620000
H      -44.27430000     -37.15520000     -73.62180000
H      -42.14860000     -34.01290000     -71.64460000
H      -43.83220000     -37.18660000     -69.30840000
H      -44.83720000     -38.09420000     -71.35710000
C      -42.45910000     -34.77380000     -69.10680000
H      -41.97330000     -33.88990000     -69.45780000
H      -41.66090000     -35.32370000     -68.65400000
C      -42.73260000     -34.73740000     -73.99520000
H      -41.82450000     -34.19540000     -73.89300000
H      -42.75110000     -35.32990000     -74.87890000
S      -43.74950000     -34.36380000     -67.87630000
S      -44.11150000     -33.46740000     -74.38120000
C      -45.13800000     -33.81030000     -68.88350000
H      -44.98880000     -34.03570000     -69.95290000
H      -45.99290000     -34.46780000     -68.70170000
C      -43.54640000     -31.97970000     -73.31250000
H      -43.82100000     -31.00410000     -73.78170000
H      -42.53310000     -32.01850000     -73.10760000
C      -44.33860000     -31.88560000     -71.98920000
H      -44.23980000     -32.77660000     -71.36420000
H      -43.91660000     -31.04630000     -71.43380000
C      -45.53660000     -32.32120000     -68.67590000
H      -44.71890000     -31.56020000     -68.79990000
H      -45.99210000     -32.28190000     -67.69720000
C      -46.76570000     -31.97970000     -69.59000000
C      -48.00930000     -31.98830000     -69.10090000
C      -46.78880000     -31.77400000     -71.09360000
H      -48.41800000     -32.10120000     -68.07400000
C      -48.10590000     -31.60750000     -71.60860000
C      -45.82840000     -31.70290000     -72.14350000
C      -46.46630000     -31.59850000     -73.39190000
S      -49.28960000     -31.68890000     -70.26970000
S      -48.18470000     -31.52350000     -73.34000000
H      -45.90410000     -31.51360000     -74.29610000
