40
Properties=species:S:1:pos:R:3 #=T CELL(abcABC):=T 1.889726e+02=T 90.00000=T Traj:=T positionsangstrom=T Step:=T 0=T Bead:=T pbc="F F F"
C      -45.46930000     -32.49730000     -67.63750000
C      -45.02920000     -33.80080000     -67.95690000
C      -45.95590000     -34.63190000     -68.61280000
C      -47.28560000     -34.21320000     -68.89240000
C      -47.69340000     -32.90270000     -68.42800000
C      -46.79310000     -32.09550000     -67.78480000
H      -44.71920000     -31.86580000     -67.18960000
H      -45.51610000     -35.45920000     -69.15970000
H      -48.75530000     -32.55310000     -68.51550000
H      -47.00680000     -31.10590000     -67.42690000
C      -48.35320000     -35.06500000     -69.49230000
H      -49.17290000     -35.09280000     -68.81030000
H      -48.07540000     -36.07060000     -69.71120000
C      -43.57130000     -34.14870000     -67.80660000
H      -43.02110000     -33.18380000     -67.96270000
H      -43.27800000     -34.57670000     -66.86700000
S      -49.24170000     -34.27010000     -70.98600000
S      -42.85580000     -35.42780000     -68.92990000
C      -47.85620000     -34.28000000     -72.14610000
H      -47.41170000     -35.20770000     -72.09630000
H      -48.24780000     -34.47870000     -73.15350000
C      -42.54810000     -34.30220000     -70.33440000
H      -41.53070000     -34.49600000     -70.73560000
H      -42.30740000     -33.32830000     -69.93950000
C      -43.67710000     -34.34440000     -71.33680000
H      -43.89330000     -35.29980000     -71.76930000
H      -44.51250000     -33.99130000     -70.78300000
C      -46.96730000     -33.08720000     -71.90100000
H      -46.34690000     -33.36430000     -71.06060000
H      -47.59040000     -32.30860000     -71.48590000
C      -46.12270000     -32.63380000     -73.06220000
C      -46.65890000     -31.90900000     -74.15510000
C      -44.64630000     -32.72660000     -73.20900000
H      -47.70710000     -31.69160000     -74.30130000
C      -44.14960000     -31.95500000     -74.31080000
C      -43.51620000     -33.41080000     -72.50780000
C      -42.33720000     -33.14640000     -73.10450000
S      -45.41380000     -31.36120000     -75.33110000
S      -42.40020000     -32.15460000     -74.57470000
H      -41.37970000     -33.40910000     -72.78410000
