40
Properties=species:S:1:pos:R:3 #=T CELL(abcABC):=T 1.889726e+02=T 90.00000=T Traj:=T positionsangstrom=T Step:=T 0=T Bead:=T pbc="F F F"
C      -45.43500000     -32.41020000     -67.68060000
C      -45.04950000     -33.70280000     -68.01000000
C      -45.98630000     -34.59610000     -68.54840000
C      -47.30390000     -34.12810000     -68.82520000
C      -47.68770000     -32.89010000     -68.40140000
C      -46.78420000     -31.98200000     -67.83730000
H      -44.67890000     -31.64780000     -67.37640000
H      -45.71230000     -35.63730000     -68.61610000
H      -48.75050000     -32.60400000     -68.48640000
H      -47.11970000     -31.01150000     -67.72450000
C      -48.20500000     -35.14640000     -69.55090000
H      -48.91590000     -35.72700000     -68.87620000
H      -47.51050000     -35.99250000     -69.85850000
C      -43.69840000     -34.29670000     -67.61570000
H      -42.94410000     -33.48840000     -67.36220000
H      -43.80680000     -34.86990000     -66.65560000
S      -49.13920000     -34.45470000     -70.86390000
S      -42.99460000     -35.53470000     -68.89200000
C      -47.94820000     -33.96840000     -72.19660000
H      -47.32800000     -34.81280000     -72.48260000
H      -48.64510000     -33.43850000     -72.95300000
C      -42.57000000     -34.47350000     -70.42630000
H      -41.93100000     -35.12220000     -71.04570000
H      -42.04640000     -33.54400000     -70.17890000
C      -43.82910000     -34.12430000     -71.21280000
H      -44.29810000     -35.12020000     -71.43460000
H      -44.58060000     -33.60930000     -70.61260000
C      -46.98680000     -32.84750000     -71.88160000
H      -46.23350000     -33.09220000     -71.08570000
H      -47.54700000     -31.96260000     -71.53990000
C      -46.07390000     -32.49430000     -73.12970000
C      -46.60900000     -31.84640000     -74.27580000
C      -44.66470000     -32.82280000     -73.36110000
H      -47.57200000     -31.32540000     -74.35900000
C      -44.11410000     -32.12830000     -74.42530000
C      -43.62240000     -33.28000000     -72.45520000
C      -42.38060000     -33.02120000     -72.95540000
S      -45.33320000     -31.42660000     -75.49730000
S      -42.30560000     -32.20160000     -74.54410000
H      -41.47450000     -33.44370000     -72.56660000
