40
Properties=species:S:1:pos:R:3 #=T CELL(abcABC):=T 1.889726e+02=T 90.00000=T Traj:=T positionsangstrom=T Step:=T 0=T Bead:=T pbc="F F F"
C      -46.86460000     -31.94160000     -68.01920000
C      -47.23850000     -31.33290000     -69.24930000
C      -48.17440000     -31.98440000     -70.09450000
C      -48.56690000     -33.28150000     -69.78100000
C      -48.17380000     -33.87570000     -68.58430000
C      -47.36400000     -33.18750000     -67.67050000
H      -46.33590000     -31.32050000     -67.24830000
H      -48.47100000     -31.52940000     -71.05870000
H      -48.42330000     -34.91200000     -68.47760000
H      -46.87570000     -33.74510000     -66.83120000
C      -49.40360000     -34.06540000     -70.80260000
H      -50.49490000     -33.71820000     -70.82220000
H      -49.48750000     -35.09800000     -70.44330000
C      -46.59230000     -30.03700000     -69.68580000
H      -46.86520000     -29.74700000     -70.69210000
H      -46.90900000     -29.17740000     -69.06670000
S      -48.83070000     -34.04460000     -72.49760000
S      -44.78660000     -30.05930000     -69.45760000
C      -46.89170000     -33.89980000     -72.63770000
H      -46.77720000     -33.81370000     -73.71470000
H      -46.70940000     -32.93410000     -72.10830000
C      -43.92170000     -30.95000000     -70.71820000
H      -42.90260000     -30.67480000     -70.55410000
H      -44.09000000     -30.51810000     -71.70270000
C      -44.11050000     -32.50520000     -70.58790000
H      -43.93930000     -32.74780000     -69.60040000
H      -45.21520000     -32.72880000     -70.88680000
C      -46.16480000     -35.15500000     -72.01160000
H      -46.66680000     -36.11420000     -72.35980000
H      -46.13080000     -35.11430000     -70.94150000
C      -44.77540000     -35.31920000     -72.61110000
C      -44.49330000     -36.39380000     -73.41610000
C      -43.60010000     -34.51770000     -72.27760000
H      -45.19490000     -37.10550000     -73.86210000
C      -42.45680000     -34.89930000     -73.07580000
C      -43.30240000     -33.28130000     -71.62270000
C      -42.01190000     -32.79850000     -71.79520000
S      -42.79190000     -36.33150000     -73.96450000
S      -41.05750000     -33.88530000     -72.90980000
H      -41.51000000     -31.82150000     -71.56660000
