40
Properties=species:S:1:pos:R:3 #=T CELL(abcABC):=T 1.889726e+02=T 90.00000=T Traj:=T positionsangstrom=T Step:=T 0=T Bead:=T pbc="F F F"
C      -43.76270000     -35.53490000     -75.09830000
C      -44.01520000     -35.96570000     -73.79370000
C      -43.24200000     -35.37230000     -72.78530000
C      -42.22550000     -34.39820000     -72.99990000
C      -41.99060000     -33.99230000     -74.30160000
C      -42.69040000     -34.53350000     -75.37840000
H      -44.31600000     -35.90860000     -75.94160000
H      -43.31060000     -35.68570000     -71.79230000
H      -41.13540000     -33.30980000     -74.49700000
H      -42.44240000     -34.37530000     -76.42670000
C      -41.56290000     -33.86870000     -71.79580000
H      -40.76140000     -33.25530000     -72.00060000
H      -41.18210000     -34.67980000     -71.17560000
C      -45.03650000     -36.98030000     -73.45340000
H      -45.30850000     -37.69160000     -74.24890000
H      -44.81440000     -37.54650000     -72.45990000
S      -42.70360000     -32.96250000     -70.65260000
S      -46.72270000     -36.09270000     -73.31770000
C      -43.48880000     -31.52110000     -71.65910000
H      -43.11770000     -30.59840000     -71.33420000
H      -42.99590000     -31.82650000     -72.54980000
C      -46.75420000     -35.07440000     -71.74170000
H      -45.75750000     -34.75900000     -71.49360000
H      -47.13590000     -35.83020000     -71.06800000
C      -47.63920000     -33.82550000     -71.81440000
H      -47.15570000     -33.12780000     -72.50960000
H      -48.66200000     -34.16080000     -72.18760000
C      -44.97930000     -31.60450000     -71.73400000
H      -45.22650000     -32.66350000     -71.96460000
H      -45.37070000     -31.01520000     -72.62180000
C      -45.69240000     -31.24920000     -70.46130000
C      -45.36540000     -30.20980000     -69.64080000
C      -46.80540000     -32.03080000     -69.97450000
H      -44.39250000     -29.64200000     -69.72660000
C      -47.18860000     -31.63060000     -68.71880000
C      -47.62980000     -33.19480000     -70.38380000
C      -48.52340000     -33.59460000     -69.44850000
S      -46.35000000     -30.18300000     -68.17380000
S      -48.46910000     -32.59540000     -67.99780000
H      -49.12520000     -34.43530000     -69.53640000
