40
Properties=species:S:1:pos:R:3 #=T CELL(abcABC):=T 1.889726e+02=T 90.00000=T Traj:=T positionsangstrom=T Step:=T 0=T Bead:=T pbc="F F F"
C      -43.81840000     -36.81290000     -72.61350000
C      -43.07250000     -35.56020000     -72.78240000
C      -42.78310000     -34.87010000     -71.61780000
C      -42.98310000     -35.41260000     -70.27010000
C      -43.69300000     -36.58740000     -70.19400000
C      -44.23840000     -37.17870000     -71.36500000
H      -44.18940000     -37.23650000     -73.57270000
H      -42.08090000     -33.99070000     -71.66080000
H      -43.99050000     -36.89230000     -69.22320000
H      -44.87690000     -38.04940000     -71.21000000
C      -42.45940000     -34.70890000     -69.01130000
H      -41.71110000     -33.86050000     -69.19190000
H      -41.91080000     -35.49530000     -68.50490000
C      -42.84940000     -34.95910000     -74.14020000
H      -41.81010000     -34.51070000     -74.37100000
H      -43.07790000     -35.61800000     -74.99880000
S      -43.78860000     -34.20010000     -67.80960000
S      -44.11540000     -33.46490000     -74.50840000
C      -45.24640000     -33.80800000     -68.89070000
H      -44.90240000     -34.10460000     -69.90950000
H      -46.10980000     -34.45960000     -68.57410000
C      -43.59350000     -32.13140000     -73.39170000
H      -43.64220000     -31.21880000     -74.00380000
H      -42.50780000     -32.33120000     -73.19320000
C      -44.26110000     -31.89440000     -72.05830000
H      -44.04920000     -32.69840000     -71.33410000
H      -43.76370000     -30.93690000     -71.73050000
C      -45.47760000     -32.24270000     -68.88910000
H      -44.57120000     -31.82330000     -69.34150000
H      -45.52510000     -31.90670000     -67.88880000
C      -46.79330000     -31.99870000     -69.58980000
C      -48.02210000     -32.05180000     -69.03530000
C      -46.76210000     -31.84900000     -71.05240000
H      -48.36680000     -32.28370000     -68.02450000
C      -48.05070000     -31.64380000     -71.51040000
C      -45.78100000     -31.78260000     -72.07330000
C      -46.41130000     -31.55880000     -73.32030000
S      -49.31540000     -31.84170000     -70.31100000
S      -48.17660000     -31.45790000     -73.23370000
H      -45.88180000     -31.30680000     -74.21560000
