40
Properties=species:S:1:pos:R:3 #=T CELL(abcABC):=T 1.889726e+02=T 90.00000=T Traj:=T positionsangstrom=T Step:=T 0=T Bead:=T pbc="F F F"
C      -43.86640000     -34.98680000     -74.94050000
C      -44.13550000     -35.41900000     -73.64860000
C      -43.26130000     -35.14370000     -72.51050000
C      -42.28600000     -34.18410000     -72.75000000
C      -42.00230000     -33.77100000     -74.07390000
C      -42.84620000     -34.10800000     -75.13210000
H      -44.47950000     -35.20700000     -75.76120000
H      -43.48290000     -35.45280000     -71.52380000
H      -41.16760000     -33.11740000     -74.24920000
H      -42.62780000     -33.78460000     -76.09060000
C      -41.54430000     -33.46690000     -71.64710000
H      -40.59800000     -33.00360000     -72.01540000
H      -41.43390000     -34.26250000     -70.81330000
C      -45.17140000     -36.49520000     -73.46120000
H      -45.04420000     -37.30340000     -74.20890000
H      -45.10020000     -36.95710000     -72.48340000
S      -42.31300000     -32.00150000     -70.87960000
S      -46.93410000     -36.04810000     -73.76740000
C      -43.63370000     -31.27390000     -71.94970000
H      -43.54560000     -30.18340000     -71.74880000
H      -43.36300000     -31.46400000     -73.00570000
C      -47.23970000     -35.18450000     -72.13360000
H      -46.24360000     -35.24300000     -71.64060000
H      -47.89240000     -35.83050000     -71.44470000
C      -47.88430000     -33.80590000     -71.99200000
H      -47.39200000     -33.06230000     -72.70600000
H      -48.90320000     -33.92330000     -72.23030000
C      -44.94100000     -31.92980000     -71.67030000
H      -44.90480000     -33.02610000     -71.92240000
H      -45.55670000     -31.53090000     -72.46490000
C      -45.54740000     -31.73490000     -70.29910000
C      -44.98430000     -31.06140000     -69.22980000
C      -46.78240000     -32.36600000     -69.96010000
H      -44.05530000     -30.47170000     -69.09760000
C      -47.10910000     -32.13680000     -68.60560000
C      -47.78530000     -33.32380000     -70.59370000
C      -48.75790000     -33.62060000     -69.70010000
S      -45.89940000     -31.23310000     -67.74650000
S      -48.55250000     -32.84240000     -68.08960000
H      -49.66200000     -34.19350000     -69.81980000
