40
Properties=species:S:1:pos:R:3 #=T CELL(abcABC):=T 1.889726e+02=T 90.00000=T Traj:=T positionsangstrom=T Step:=T 0=T Bead:=T pbc="F F F"
C      -43.77780000     -35.11760000     -75.13230000
C      -44.08600000     -35.46750000     -73.79440000
C      -43.47550000     -34.86240000     -72.67720000
C      -42.44890000     -33.93650000     -72.93840000
C      -42.22960000     -33.52990000     -74.27370000
C      -42.90740000     -34.07770000     -75.35220000
H      -44.32310000     -35.57250000     -75.95820000
H      -43.62410000     -35.24860000     -71.64980000
H      -41.49480000     -32.75280000     -74.61550000
H      -42.79490000     -33.73300000     -76.33600000
C      -41.63160000     -33.59040000     -71.77950000
H      -40.57600000     -33.42910000     -72.06540000
H      -41.54010000     -34.35220000     -71.10350000
C      -45.12550000     -36.54080000     -73.61580000
H      -45.13620000     -37.27230000     -74.47070000
H      -44.73390000     -37.11660000     -72.77920000
S      -42.12780000     -31.98850000     -70.82480000
S      -46.88510000     -35.96310000     -73.38660000
C      -43.59560000     -31.29060000     -71.81020000
H      -43.62330000     -30.27310000     -71.48950000
H      -43.32200000     -31.30630000     -72.87230000
C      -47.07940000     -35.18580000     -71.75040000
H      -46.07350000     -34.93990000     -71.33190000
H      -47.66410000     -35.78900000     -71.16050000
C      -47.70210000     -33.71190000     -71.96370000
H      -47.03570000     -33.03290000     -72.54060000
H      -48.59680000     -33.70230000     -72.58030000
C      -44.92690000     -31.92820000     -71.72040000
H      -44.84280000     -32.90310000     -72.17330000
H      -45.61190000     -31.34490000     -72.34940000
C      -45.54690000     -31.94530000     -70.28660000
C      -44.93110000     -31.34950000     -69.24730000
C      -46.83020000     -32.47540000     -69.89170000
H      -43.96340000     -30.88790000     -69.23380000
C      -47.13320000     -32.20080000     -68.58300000
C      -47.91630000     -33.15630000     -70.57860000
C      -48.93160000     -33.46340000     -69.74700000
S      -45.84690000     -31.34350000     -67.78470000
S      -48.67210000     -32.91210000     -68.12670000
H      -49.89550000     -33.92250000     -69.92600000
