40
Properties=species:S:1:pos:R:3 #=T CELL(abcABC):=T 1.889726e+02=T 90.00000=T Traj:=T positionsangstrom=T Step:=T 0=T Bead:=T pbc="F F F"
C      -43.94660000     -36.57780000     -72.58940000
C      -43.08580000     -35.51550000     -72.72610000
C      -42.69170000     -34.87280000     -71.47720000
C      -42.91110000     -35.38150000     -70.24560000
C      -43.61540000     -36.60040000     -70.14290000
C      -44.13470000     -37.16450000     -71.30850000
H      -44.35710000     -37.13620000     -73.45470000
H      -42.18660000     -33.92880000     -71.51560000
H      -43.75700000     -36.99910000     -69.12320000
H      -44.67410000     -38.16320000     -71.25300000
C      -42.38520000     -34.57880000     -69.04920000
H      -42.13090000     -33.57620000     -69.36320000
H      -41.60150000     -35.09850000     -68.46180000
C      -42.88830000     -34.79570000     -74.06100000
H      -41.98000000     -34.23750000     -74.02970000
H      -42.85510000     -35.57170000     -74.82670000
S      -43.73840000     -34.29570000     -67.74590000
S      -44.13280000     -33.52130000     -74.41020000
C      -45.27090000     -33.74490000     -68.66640000
H      -45.40210000     -34.27470000     -69.57810000
H      -46.12260000     -33.98790000     -68.09120000
C      -43.57500000     -32.17990000     -73.31670000
H      -43.67220000     -31.31150000     -73.90350000
H      -42.49000000     -32.24200000     -73.09580000
C      -44.43660000     -32.06650000     -72.04310000
H      -44.28010000     -33.03160000     -71.59450000
H      -44.05900000     -31.32570000     -71.33300000
C      -45.40680000     -32.26360000     -68.92010000
H      -44.49490000     -31.85430000     -69.37560000
H      -45.43940000     -31.66510000     -67.97720000
C      -46.72240000     -32.00630000     -69.73390000
C      -47.94820000     -32.08520000     -69.16900000
C      -46.79300000     -31.86420000     -71.21750000
H      -48.18720000     -32.27050000     -68.14860000
C      -48.10410000     -31.70370000     -71.61810000
C      -45.84070000     -31.74030000     -72.29320000
C      -46.53470000     -31.40880000     -73.48160000
S      -49.21350000     -31.95770000     -70.35270000
S      -48.28690000     -31.39620000     -73.30200000
H      -46.11240000     -31.45150000     -74.44390000
