40
Properties=species:S:1:pos:R:3 #=T CELL(abcABC):=T 1.889726e+02=T 90.00000=T Traj:=T positionsangstrom=T Step:=T 0=T Bead:=T pbc="F F F"
C      -46.55910000     -31.56190000     -68.21640000
C      -45.97130000     -32.82710000     -68.20730000
C      -46.60590000     -33.84080000     -68.89670000
C      -47.97620000     -33.73560000     -69.19210000
C      -48.64160000     -32.52510000     -69.00090000
C      -47.89270000     -31.37700000     -68.56750000
H      -46.06870000     -30.72550000     -67.75130000
H      -46.07520000     -34.76940000     -68.97170000
H      -49.60650000     -32.34880000     -69.35890000
H      -48.23270000     -30.34170000     -68.52080000
C      -48.64500000     -34.94880000     -69.87860000
H      -49.63870000     -35.11240000     -69.69780000
H      -48.06740000     -35.83520000     -69.69790000
C      -44.50880000     -32.84550000     -67.76540000
H      -43.98580000     -32.10730000     -68.38870000
H      -44.54710000     -32.49810000     -66.69710000
S      -48.79160000     -34.81830000     -71.64880000
S      -43.52860000     -34.39790000     -67.96770000
C      -47.01300000     -34.51830000     -72.09510000
H      -46.41510000     -35.04710000     -71.41090000
H      -46.84770000     -34.80090000     -73.14780000
C      -42.79610000     -34.14380000     -69.70980000
H      -42.23720000     -35.11430000     -69.91470000
H      -42.16390000     -33.27510000     -69.52610000
C      -43.90590000     -33.87230000     -70.66990000
H      -44.51010000     -34.84930000     -70.81520000
H      -44.64480000     -33.19170000     -70.30300000
C      -46.56250000     -32.96960000     -72.06560000
H      -46.08570000     -32.63770000     -71.11360000
H      -47.43430000     -32.33820000     -72.19760000
C      -45.56840000     -32.76900000     -73.22120000
C      -45.89990000     -32.13290000     -74.38300000
C      -44.17950000     -33.18880000     -73.17940000
H      -46.94030000     -31.90810000     -74.70600000
C      -43.50290000     -32.92600000     -74.33210000
C      -43.34540000     -33.52580000     -72.07550000
C      -42.00060000     -33.70270000     -72.42760000
S      -44.53210000     -32.22870000     -75.58280000
S      -41.82500000     -33.38230000     -74.16490000
H      -41.15100000     -33.81040000     -71.72400000
