40
Properties=species:S:1:pos:R:3 #=T CELL(abcABC):=T 1.889726e+02=T 90.00000=T Traj:=T positionsangstrom=T Step:=T 0=T Bead:=T pbc="F F F"
C      -46.67100000     -31.66500000     -68.21110000
C      -46.09980000     -32.88700000     -68.08020000
C      -46.78940000     -33.97380000     -68.59250000
C      -47.96440000     -33.89390000     -69.34050000
C      -48.46940000     -32.56020000     -69.52140000
C      -47.83250000     -31.50330000     -68.96670000
H      -46.21790000     -30.79290000     -67.77790000
H      -46.30960000     -34.87410000     -68.49910000
H      -49.41590000     -32.31010000     -70.02600000
H      -48.35540000     -30.51100000     -69.06810000
C      -48.60620000     -35.16870000     -69.95670000
H      -49.62780000     -35.36430000     -69.64550000
H      -48.00080000     -35.98720000     -69.65600000
C      -44.91030000     -33.00620000     -67.21510000
H      -44.44980000     -32.08110000     -66.89520000
H      -45.14530000     -33.41630000     -66.19510000
S      -48.67120000     -35.03720000     -71.80160000
S      -43.64800000     -34.26130000     -67.78680000
C      -47.00250000     -34.55220000     -72.41630000
H      -46.29850000     -34.91350000     -71.64440000
H      -46.87860000     -35.06390000     -73.32290000
C      -43.03130000     -33.48590000     -69.39540000
H      -42.23990000     -34.21180000     -69.69720000
H      -42.44450000     -32.49820000     -69.23530000
C      -44.10820000     -33.41000000     -70.50300000
H      -44.72380000     -34.33580000     -70.46400000
H      -44.68370000     -32.47670000     -70.49680000
C      -46.81640000     -33.00800000     -72.67190000
H      -46.58610000     -32.58670000     -71.72570000
H      -47.73720000     -32.53850000     -73.04840000
C      -45.65630000     -32.85060000     -73.54800000
C      -45.65480000     -32.34060000     -74.86820000
C      -44.21470000     -33.05590000     -73.13390000
H      -46.56520000     -31.95940000     -75.32680000
C      -43.36480000     -32.99790000     -74.21580000
C      -43.51940000     -33.37610000     -71.89580000
C      -42.17050000     -33.62450000     -72.16580000
S      -44.09440000     -32.38480000     -75.64560000
S      -41.69650000     -33.18930000     -73.81780000
H      -41.43820000     -33.95470000     -71.45570000
