40
Properties=species:S:1:pos:R:3 #=T CELL(abcABC):=T 1.889726e+02=T 90.00000=T Traj:=T positionsangstrom=T Step:=T 0=T Bead:=T pbc="F F F"
C      -46.71940000     -31.66670000     -68.27590000
C      -46.34090000     -32.97710000     -67.91770000
C      -47.06160000     -34.04270000     -68.44660000
C      -48.03600000     -33.86880000     -69.42320000
C      -48.35120000     -32.55800000     -69.83620000
C      -47.74150000     -31.43390000     -69.21720000
H      -46.27450000     -30.84000000     -67.71810000
H      -46.80220000     -35.15390000     -68.17830000
H      -48.98880000     -32.49810000     -70.75160000
H      -47.98020000     -30.46140000     -69.47430000
C      -48.58550000     -35.08950000     -70.09540000
H      -49.51130000     -35.32940000     -69.63320000
H      -47.91640000     -35.92150000     -69.93770000
C      -45.17720000     -33.20210000     -66.97050000
H      -44.92680000     -32.13470000     -66.59080000
H      -45.39810000     -33.84010000     -66.10550000
S      -48.98760000     -34.88620000     -71.93450000
S      -43.66340000     -34.02630000     -67.65890000
C      -47.19080000     -34.82460000     -72.67810000
H      -46.54090000     -35.52750000     -72.12500000
H      -47.34250000     -35.09570000     -73.74440000
C      -43.19580000     -33.23600000     -69.22360000
H      -42.06760000     -33.49470000     -69.17610000
H      -43.23170000     -32.15460000     -69.00210000
C      -43.98340000     -33.59940000     -70.52950000
H      -44.16430000     -34.68720000     -70.47450000
H      -44.97420000     -33.24960000     -70.49470000
C      -46.57490000     -33.33230000     -72.62700000
H      -46.31790000     -33.09230000     -71.63770000
H      -47.28140000     -32.61430000     -72.96420000
C      -45.43180000     -33.21150000     -73.62250000
C      -45.56110000     -32.87110000     -74.94610000
C      -44.06710000     -33.25290000     -73.19440000
H      -46.47130000     -32.67000000     -75.51310000
C      -43.18870000     -32.81100000     -74.15630000
C      -43.38610000     -33.30730000     -71.89980000
C      -42.05030000     -33.11380000     -71.98850000
S      -43.99310000     -32.78650000     -75.72620000
S      -41.54310000     -32.72500000     -73.58320000
H      -41.31950000     -33.00630000     -71.22710000
