40
Properties=species:S:1:pos:R:3 #=T CELL(abcABC):=T 1.889726e+02=T 90.00000=T Traj:=T positionsangstrom=T Step:=T 0=T Bead:=T pbc="F F F"
C      -41.74040000     -33.48880000     -71.45040000
C      -42.18030000     -32.20860000     -71.23790000
C      -42.84710000     -31.55500000     -72.34090000
C      -43.17400000     -32.20670000     -73.56530000
C      -42.92980000     -33.63320000     -73.59670000
C      -42.08860000     -34.14710000     -72.61600000
H      -41.14100000     -34.07600000     -70.76550000
H      -43.25150000     -30.53500000     -72.29550000
H      -43.18920000     -34.18810000     -74.51850000
H      -41.76540000     -35.23650000     -72.71030000
C      -43.74700000     -31.42770000     -74.74300000
H      -43.57800000     -31.97130000     -75.66680000
H      -43.25970000     -30.48240000     -74.79440000
C      -41.97290000     -31.43730000     -69.90390000
H      -40.98510000     -31.07790000     -69.62640000
H      -42.54420000     -30.56680000     -69.83960000
S      -45.60010000     -31.09240000     -74.63580000
S      -42.50050000     -32.50770000     -68.44720000
C      -46.23600000     -32.69280000     -74.02590000
H      -47.27080000     -32.64230000     -74.18950000
H      -46.00520000     -33.45940000     -74.72480000
C      -44.26140000     -32.85370000     -68.92300000
H      -44.53680000     -31.99820000     -69.49270000
H      -44.68130000     -32.98540000     -67.96040000
C      -44.53350000     -34.20690000     -69.70810000
H      -44.29960000     -34.09370000     -70.77240000
H      -43.89550000     -35.03590000     -69.32430000
C      -46.00540000     -32.96470000     -72.60150000
H      -46.01390000     -32.04510000     -72.01850000
H      -45.00590000     -33.47500000     -72.35080000
C      -47.04140000     -33.96570000     -71.95240000
C      -48.31580000     -34.10290000     -72.49560000
C      -47.01240000     -34.51090000     -70.61160000
H      -48.79020000     -33.64530000     -73.35010000
C      -48.22820000     -35.07800000     -70.28300000
C      -46.03270000     -34.55750000     -69.56300000
C      -46.54690000     -34.99670000     -68.35040000
S      -49.43490000     -34.98510000     -71.53470000
S      -48.28160000     -35.51500000     -68.59520000
H      -46.06650000     -35.07300000     -67.40660000
