40
Properties=species:S:1:pos:R:3 #=T CELL(abcABC):=T 1.889726e+02=T 90.00000=T Traj:=T positionsangstrom=T Step:=T 0=T Bead:=T pbc="F F F"
C      -41.69390000     -33.45100000     -71.48920000
C      -42.14280000     -32.13850000     -71.28280000
C      -42.89660000     -31.50440000     -72.28470000
C      -43.10720000     -32.05880000     -73.59280000
C      -42.68720000     -33.36450000     -73.74690000
C      -42.07130000     -34.03710000     -72.68710000
H      -41.14420000     -34.15340000     -70.77270000
H      -43.22800000     -30.43230000     -72.19470000
H      -43.14440000     -33.92710000     -74.62770000
H      -41.73190000     -35.07130000     -72.96960000
C      -43.83060000     -31.31500000     -74.72250000
H      -43.54280000     -31.74120000     -75.71600000
H      -43.49710000     -30.25880000     -74.75430000
C      -41.95730000     -31.42620000     -69.95350000
H      -40.86440000     -31.36290000     -69.71180000
H      -42.40450000     -30.41360000     -69.81720000
S      -45.66180000     -31.31880000     -74.70790000
S      -42.41180000     -32.66150000     -68.66210000
C      -46.17290000     -33.04760000     -74.19130000
H      -47.24670000     -33.21420000     -74.48370000
H      -45.37650000     -33.74990000     -74.42230000
C      -44.22700000     -32.86240000     -68.98590000
H      -44.68690000     -31.92900000     -69.45290000
H      -44.84790000     -32.86450000     -68.09490000
C      -44.55330000     -34.17880000     -69.75950000
H      -44.42230000     -34.03860000     -70.82400000
H      -43.96010000     -34.96550000     -69.43970000
C      -46.21580000     -33.12210000     -72.65020000
H      -46.45310000     -32.12490000     -72.31560000
H      -45.18380000     -33.28180000     -72.33310000
C      -47.17790000     -34.02500000     -71.97040000
C      -48.41410000     -34.27690000     -72.44010000
C      -47.06040000     -34.38010000     -70.56670000
H      -48.69710000     -33.90880000     -73.46670000
C      -48.30750000     -34.81820000     -70.06210000
C      -45.97480000     -34.50500000     -69.58180000
C      -46.45820000     -35.03170000     -68.42950000
S      -49.55860000     -35.00170000     -71.25560000
S      -48.16400000     -35.30320000     -68.39210000
H      -45.85900000     -35.11010000     -67.51620000
