40
Properties=species:S:1:pos:R:3 #=T CELL(abcABC):=T 1.889726e+02=T 90.00000=T Traj:=T positionsangstrom=T Step:=T 0=T Bead:=T pbc="F F F"
C      -45.20220000     -33.15740000     -75.11550000
C      -44.08220000     -33.03810000     -74.20110000
C      -44.16170000     -31.92710000     -73.39520000
C      -45.18200000     -30.96010000     -73.48830000
C      -46.18120000     -31.03440000     -74.43830000
C      -46.17330000     -32.16930000     -75.23530000
H      -45.24790000     -34.09910000     -75.71020000
H      -43.40840000     -31.77100000     -72.67440000
H      -46.97470000     -30.29360000     -74.45090000
H      -46.94660000     -32.38780000     -75.95410000
C      -44.99040000     -29.65290000     -72.77000000
H      -45.84640000     -28.94690000     -73.16790000
H      -44.06090000     -29.11240000     -73.08740000
C      -42.85550000     -33.96120000     -74.25900000
H      -42.69580000     -34.43370000     -75.20130000
H      -41.95190000     -33.45540000     -74.01660000
S      -44.85870000     -29.78240000     -70.92550000
S      -42.99690000     -35.44930000     -73.19390000
C      -45.94300000     -31.24410000     -70.46180000
H      -46.98570000     -30.95160000     -70.43670000
H      -45.85180000     -32.13530000     -71.09970000
C      -42.55660000     -34.96740000     -71.42720000
H      -41.61380000     -34.42120000     -71.38560000
H      -42.38120000     -35.81640000     -70.83300000
C      -43.69550000     -34.08730000     -70.74570000
H      -43.21080000     -33.52220000     -69.97490000
H      -44.06760000     -33.27360000     -71.40070000
C      -45.48120000     -31.65860000     -69.05190000
H      -45.81060000     -30.78670000     -68.40520000
H      -44.35790000     -31.72880000     -69.08020000
C      -46.17270000     -32.95920000     -68.71170000
C      -47.30880000     -33.02280000     -67.96540000
C      -45.90180000     -34.23760000     -69.40900000
H      -47.71000000     -32.13930000     -67.44120000
C      -46.93530000     -35.15670000     -69.12970000
C      -44.84010000     -34.83440000     -70.19440000
C      -45.12060000     -36.12210000     -70.54850000
S      -48.21070000     -34.53260000     -68.23610000
S      -46.56700000     -36.73200000     -69.77710000
H      -44.42760000     -36.71290000     -71.12140000
