40
Properties=species:S:1:pos:R:3 #=T CELL(abcABC):=T 1.889726e+02=T 90.00000=T Traj:=T positionsangstrom=T Step:=T 0=T Bead:=T pbc="F F F"
C      -45.21870000     -33.45790000     -74.86990000
C      -44.04730000     -32.98840000     -74.27080000
C      -44.09480000     -31.68710000     -73.67210000
C      -45.22100000     -30.91790000     -73.64740000
C      -46.35010000     -31.35750000     -74.36960000
C      -46.39430000     -32.60680000     -74.99660000
H      -45.26210000     -34.44070000     -75.33290000
H      -43.18780000     -31.24090000     -73.28800000
H      -47.19680000     -30.66200000     -74.50660000
H      -47.29910000     -32.99500000     -75.45510000
C      -45.36340000     -29.63630000     -72.82790000
H      -46.42340000     -29.39630000     -72.83970000
H      -44.83380000     -28.85080000     -73.20800000
C      -42.79370000     -33.82200000     -74.22900000
H      -42.46760000     -34.04810000     -75.28490000
H      -41.97400000     -33.18970000     -73.77750000
S      -44.82100000     -29.69620000     -71.07570000
S      -42.93540000     -35.34960000     -73.18220000
C      -45.84760000     -31.07700000     -70.48010000
H      -46.89260000     -30.75390000     -70.43220000
H      -45.93840000     -31.85380000     -71.25990000
C      -42.57500000     -34.67200000     -71.52030000
H      -41.87160000     -33.84970000     -71.79280000
H      -42.07530000     -35.43150000     -70.90230000
C      -43.74070000     -33.96520000     -70.79420000
H      -43.30840000     -33.52670000     -69.86220000
H      -44.06460000     -33.13570000     -71.39180000
C      -45.43590000     -31.66680000     -69.10130000
H      -45.64660000     -31.03210000     -68.22780000
H      -44.38550000     -31.89430000     -69.09180000
C      -46.25450000     -32.96990000     -68.79150000
C      -47.37840000     -33.03060000     -68.01650000
C      -45.90960000     -34.26130000     -69.41130000
H      -47.66140000     -32.22670000     -67.28790000
C      -46.85540000     -35.24120000     -69.04290000
C      -44.91630000     -34.78210000     -70.28560000
C      -45.17600000     -36.05310000     -70.72420000
S      -47.98330000     -34.66870000     -67.80670000
S      -46.55330000     -36.80530000     -69.88850000
H      -44.48750000     -36.68290000     -71.20820000
