40
Properties=species:S:1:pos:R:3 #=T CELL(abcABC):=T 1.889726e+02=T 90.00000=T Traj:=T positionsangstrom=T Step:=T 0=T Bead:=T pbc="F F F"
C      -45.15170000     -33.44820000     -74.81790000
C      -44.03590000     -32.82520000     -74.18710000
C      -44.13460000     -31.54780000     -73.67490000
C      -45.38820000     -30.96190000     -73.61690000
C      -46.50370000     -31.61560000     -74.02520000
C      -46.43250000     -32.91990000     -74.63350000
H      -45.01360000     -34.37270000     -75.36590000
H      -43.29850000     -31.08520000     -73.10440000
H      -47.51720000     -31.29550000     -73.81030000
H      -47.31730000     -33.34630000     -75.11710000
C      -45.46840000     -29.55890000     -72.95810000
H      -46.45260000     -29.08970000     -72.97630000
H      -44.73870000     -28.86690000     -73.47430000
C      -42.67050000     -33.58540000     -74.16540000
H      -42.33070000     -33.76480000     -75.13560000
H      -41.97960000     -32.95380000     -73.64750000
S      -44.87170000     -29.85530000     -71.24960000
S      -42.89620000     -35.14240000     -73.20570000
C      -45.99760000     -31.22450000     -70.68270000
H      -47.05780000     -30.88510000     -70.80390000
H      -45.81250000     -32.11410000     -71.27420000
C      -42.61280000     -34.68740000     -71.45300000
H      -41.69280000     -34.20210000     -71.33830000
H      -42.50580000     -35.70450000     -70.96720000
C      -43.78890000     -33.86430000     -70.88630000
H      -43.41550000     -33.28270000     -70.04570000
H      -44.14990000     -33.13810000     -71.64340000
C      -45.58950000     -31.58780000     -69.19720000
H      -45.91780000     -30.82840000     -68.51150000
H      -44.50410000     -31.49310000     -69.15870000
C      -46.19710000     -32.93410000     -68.83530000
C      -47.11830000     -33.07150000     -67.88200000
C      -45.94570000     -34.23990000     -69.50870000
H      -47.57540000     -32.30430000     -67.23240000
C      -46.79690000     -35.26340000     -69.06210000
C      -44.96620000     -34.76950000     -70.38830000
C      -45.21270000     -36.06260000     -70.78230000
S      -47.82370000     -34.72320000     -67.75620000
S      -46.50710000     -36.80220000     -69.85460000
H      -44.65320000     -36.68450000     -71.45980000
