40
Properties=species:S:1:pos:R:3 #=T CELL(abcABC):=T 1.889726e+02=T 90.00000=T Traj:=T positionsangstrom=T Step:=T 0=T Bead:=T pbc="F F F"
C      -45.20010000     -33.73190000     -74.62620000
C      -44.11830000     -32.91580000     -74.26360000
C      -44.28930000     -31.66390000     -73.67820000
C      -45.58730000     -31.18310000     -73.38890000
C      -46.65090000     -32.01420000     -73.74540000
C      -46.44530000     -33.23180000     -74.37410000
H      -45.03210000     -34.68050000     -75.17810000
H      -43.49230000     -31.02060000     -73.51620000
H      -47.66000000     -31.74220000     -73.60980000
H      -47.28710000     -33.88860000     -74.59840000
C      -45.95610000     -29.78140000     -72.83310000
H      -47.09180000     -29.66530000     -72.81350000
H      -45.59620000     -28.93090000     -73.37630000
C      -42.78240000     -33.46350000     -74.42910000
H      -42.64780000     -33.77470000     -75.48960000
H      -41.97170000     -32.68050000     -74.20800000
S      -45.30800000     -29.54590000     -71.04030000
S      -42.55960000     -35.01840000     -73.46510000
C      -46.26040000     -30.91710000     -70.25130000
H      -47.06400000     -30.56320000     -69.60690000
H      -46.63150000     -31.44820000     -71.02220000
C      -42.48780000     -34.44130000     -71.66500000
H      -41.84630000     -33.55250000     -71.58650000
H      -42.06050000     -35.24610000     -71.06810000
C      -43.68190000     -33.88700000     -70.96940000
H      -43.32200000     -33.51080000     -69.98610000
H      -44.01660000     -32.99890000     -71.54030000
C      -45.37840000     -31.71810000     -69.28010000
H      -45.14120000     -31.14790000     -68.39210000
H      -44.33830000     -31.87420000     -69.75870000
C      -46.03900000     -33.02770000     -68.94970000
C      -47.04100000     -33.05720000     -68.02360000
C      -45.88950000     -34.27460000     -69.64090000
H      -47.24200000     -32.19110000     -67.35910000
C      -46.76730000     -35.27020000     -69.16670000
C      -44.83090000     -34.72220000     -70.56080000
C      -44.95730000     -36.08340000     -70.71860000
S      -47.77780000     -34.65450000     -67.86200000
S      -46.29830000     -36.84350000     -69.78990000
H      -44.22980000     -36.65410000     -71.34190000
