40
Properties=species:S:1:pos:R:3 #=T CELL(abcABC):=T 1.889726e+02=T 90.00000=T Traj:=T positionsangstrom=T Step:=T 0=T Bead:=T pbc="F F F"
C      -46.04490000     -33.46890000     -74.47630000
C      -44.79630000     -32.77630000     -74.32390000
C      -44.83050000     -31.48330000     -73.79560000
C      -45.98840000     -30.81880000     -73.42360000
C      -47.22620000     -31.52960000     -73.56160000
C      -47.22080000     -32.84830000     -74.04580000
H      -46.01300000     -34.53680000     -74.87780000
H      -43.79590000     -31.08970000     -73.58980000
H      -48.10710000     -30.96610000     -73.23260000
H      -48.20510000     -33.37660000     -74.06960000
C      -45.93450000     -29.47260000     -72.79380000
H      -46.89870000     -28.90620000     -72.96290000
H      -45.11930000     -28.88550000     -73.27320000
C      -43.40050000     -33.41190000     -74.75290000
H      -43.54560000     -33.86240000     -75.66380000
H      -42.66210000     -32.65990000     -74.82460000
S      -45.56400000     -29.61190000     -70.94750000
S      -42.83060000     -34.76840000     -73.61290000
C      -46.36530000     -31.26660000     -70.44380000
H      -47.48060000     -31.14590000     -70.44790000
H      -46.12460000     -31.97870000     -71.18500000
C      -42.53270000     -33.92460000     -72.05760000
H      -41.82350000     -33.13050000     -72.11630000
H      -42.09620000     -34.74570000     -71.42900000
C      -43.75660000     -33.49520000     -71.28400000
H      -43.54450000     -32.58350000     -70.75760000
H      -44.52720000     -33.24150000     -71.98410000
C      -45.84730000     -31.73250000     -69.05190000
H      -46.29620000     -31.20790000     -68.23070000
H      -44.71070000     -31.65610000     -69.00890000
C      -46.12590000     -33.19850000     -68.84200000
C      -47.11390000     -33.66880000     -67.98310000
C      -45.44750000     -34.35090000     -69.48750000
H      -47.82710000     -32.98250000     -67.49400000
C      -45.93420000     -35.57210000     -69.06490000
C      -44.34140000     -34.57870000     -70.36440000
C      -43.99170000     -35.88200000     -70.53270000
S      -47.28110000     -35.46830000     -67.98750000
S      -45.15350000     -36.99740000     -69.66380000
H      -43.13760000     -36.38050000     -70.90970000
