40
Properties=species:S:1:pos:R:3 #=T CELL(abcABC):=T 1.889726e+02=T 90.00000=T Traj:=T positionsangstrom=T Step:=T 0=T Bead:=T pbc="F F F"
C      -42.15780000     -33.16540000     -74.59440000
C      -42.86050000     -32.25830000     -73.76570000
C      -44.23380000     -32.16200000     -73.89380000
C      -44.97600000     -33.02880000     -74.76180000
C      -44.22460000     -33.94150000     -75.46270000
C      -42.80940000     -34.01130000     -75.48620000
H      -41.05470000     -33.04840000     -74.52550000
H      -44.78330000     -31.52460000     -73.19880000
H      -44.62810000     -34.61320000     -76.14330000
H      -42.31950000     -34.65150000     -76.23670000
C      -46.44840000     -32.94600000     -74.88250000
H      -46.86140000     -33.44390000     -75.70320000
H      -46.73070000     -31.87250000     -74.98430000
C      -42.09660000     -31.29520000     -72.79820000
H      -41.11180000     -30.94640000     -73.20990000
H      -42.77880000     -30.47160000     -72.59260000
S      -47.43520000     -33.72240000     -73.49680000
S      -41.76240000     -32.07400000     -71.13920000
C      -46.32270000     -35.13610000     -72.98010000
H      -46.90870000     -36.07670000     -73.04990000
H      -45.44040000     -35.17700000     -73.60520000
C      -43.43330000     -32.14960000     -70.28470000
H      -44.11350000     -32.19770000     -71.11080000
H      -43.71550000     -31.17770000     -69.82920000
C      -43.64840000     -33.25730000     -69.27340000
H      -43.44840000     -34.16650000     -69.80290000
H      -42.89840000     -33.25410000     -68.52000000
C      -45.70700000     -34.89100000     -71.62080000
H      -44.97860000     -34.16050000     -71.85180000
H      -45.13060000     -35.82620000     -71.25430000
C      -46.60000000     -34.61270000     -70.45370000
C      -47.95790000     -34.89600000     -70.49120000
C      -46.17640000     -33.97060000     -69.18040000
H      -48.42570000     -35.42110000     -71.32950000
C      -47.28970000     -33.77840000     -68.35220000
C      -45.00200000     -33.32140000     -68.69590000
C      -45.20620000     -32.77260000     -67.39930000
S      -48.72280000     -34.54200000     -68.94200000
S      -46.94320000     -32.92880000     -66.86040000
H      -44.39080000     -32.46740000     -66.76430000
