40
Properties=species:S:1:pos:R:3 #=T CELL(abcABC):=T 1.889726e+02=T 90.00000=T Traj:=T positionsangstrom=T Step:=T 0=T Bead:=T pbc="F F F"
C      -42.52650000     -33.31560000     -74.65840000
C      -43.00770000     -32.28570000     -73.77490000
C      -44.37950000     -32.14320000     -73.71390000
C      -45.24990000     -33.00550000     -74.39610000
C      -44.74640000     -33.98000000     -75.26140000
C      -43.34670000     -34.12990000     -75.42410000
H      -41.44700000     -33.46960000     -74.73780000
H      -44.80130000     -31.40920000     -73.09750000
H      -45.55460000     -34.50940000     -75.71680000
H      -42.84610000     -34.90180000     -76.03530000
C      -46.69030000     -32.83470000     -74.19480000
H      -47.15050000     -32.42710000     -75.11090000
H      -47.06360000     -32.19840000     -73.38910000
C      -42.15070000     -31.49020000     -72.92860000
H      -41.20340000     -31.26190000     -73.47400000
H      -42.70390000     -30.64510000     -72.59820000
S      -47.55090000     -34.38190000     -73.64270000
S      -41.58550000     -32.42500000     -71.38940000
C      -46.21470000     -35.40420000     -72.80480000
H      -46.69910000     -36.36660000     -72.55890000
H      -45.48240000     -35.54010000     -73.63820000
C      -43.20680000     -32.22200000     -70.45470000
H      -44.02140000     -32.23450000     -71.15010000
H      -43.25710000     -31.14500000     -70.11610000
C      -43.48420000     -33.28940000     -69.41200000
H      -43.39480000     -34.26210000     -69.90160000
H      -42.75970000     -33.28690000     -68.61520000
C      -45.61870000     -34.73120000     -71.56550000
H      -45.14850000     -33.73710000     -71.80570000
H      -44.71000000     -35.41920000     -71.32480000
C      -46.51480000     -34.47020000     -70.37730000
C      -47.79980000     -34.85510000     -70.31800000
C      -46.09690000     -33.71070000     -69.23220000
H      -48.37990000     -35.50040000     -70.97410000
C      -47.14000000     -33.52430000     -68.34890000
C      -44.85930000     -33.07220000     -68.77390000
C      -45.04270000     -32.38200000     -67.58890000
S      -48.65520000     -34.25140000     -68.92220000
S      -46.68970000     -32.49120000     -66.99240000
H      -44.24250000     -32.11010000     -66.97640000
