40
Properties=species:S:1:pos:R:3 #=T CELL(abcABC):=T 1.889726e+02=T 90.00000=T Traj:=T positionsangstrom=T Step:=T 0=T Bead:=T pbc="F F F"
C      -42.66590000     -33.27160000     -74.90050000
C      -42.95450000     -32.28960000     -73.96660000
C      -44.29580000     -32.13000000     -73.62170000
C      -45.27740000     -32.94060000     -74.21360000
C      -44.93390000     -33.80560000     -75.23230000
C      -43.61270000     -33.98520000     -75.61370000
H      -41.54820000     -33.46740000     -74.94490000
H      -44.58150000     -31.39330000     -72.88600000
H      -45.67500000     -34.34840000     -75.69020000
H      -43.32130000     -34.66100000     -76.39680000
C      -46.77930000     -32.91610000     -73.75540000
H      -47.24360000     -32.35980000     -74.55710000
H      -46.97060000     -32.23380000     -72.89580000
C      -41.97730000     -31.62530000     -73.11710000
H      -40.99500000     -31.48860000     -73.60070000
H      -42.17570000     -30.56340000     -72.75720000
S      -47.63750000     -34.55770000     -73.52980000
S      -41.64560000     -32.53930000     -71.51680000
C      -46.27680000     -35.60820000     -72.73460000
H      -46.61900000     -36.55620000     -72.41190000
H      -45.55790000     -35.85220000     -73.51340000
C      -43.19260000     -32.30020000     -70.59270000
H      -44.03420000     -32.42450000     -71.31950000
H      -43.25320000     -31.30050000     -70.12960000
C      -43.44030000     -33.35820000     -69.43700000
H      -43.28300000     -34.40160000     -69.75340000
H      -42.61190000     -33.23000000     -68.64800000
C      -45.61000000     -34.85160000     -71.57550000
H      -45.20760000     -33.95260000     -71.91050000
H      -44.83090000     -35.37950000     -71.13460000
C      -46.56120000     -34.49060000     -70.38790000
C      -47.86540000     -34.75360000     -70.30020000
C      -46.06340000     -33.62630000     -69.29590000
H      -48.38530000     -35.37090000     -71.01360000
C      -47.03780000     -33.35230000     -68.32630000
C      -44.78600000     -33.10190000     -68.75240000
C      -44.91130000     -32.38170000     -67.58460000
S      -48.59750000     -34.09700000     -68.84720000
S      -46.55210000     -32.35910000     -67.00750000
H      -44.13930000     -32.01660000     -66.96510000
