40
Properties=species:S:1:pos:R:3 #=T CELL(abcABC):=T 1.889726e+02=T 90.00000=T Traj:=T positionsangstrom=T Step:=T 0=T Bead:=T pbc="F F F"
C      -42.82680000     -33.17720000     -75.13370000
C      -43.09700000     -32.35090000     -74.04210000
C      -44.44770000     -32.20470000     -73.68730000
C      -45.45250000     -32.98350000     -74.29740000
C      -45.10800000     -33.75180000     -75.42380000
C      -43.81010000     -33.91520000     -75.84160000
H      -41.77530000     -33.19930000     -75.49990000
H      -44.60110000     -31.47800000     -72.82900000
H      -45.82220000     -34.27120000     -75.98980000
H      -43.60570000     -34.48420000     -76.78790000
C      -46.79720000     -32.88810000     -73.69950000
H      -47.59590000     -32.47280000     -74.31080000
H      -46.67490000     -32.40570000     -72.73280000
C      -41.98730000     -31.73650000     -73.25690000
H      -41.14740000     -31.78990000     -73.85130000
H      -42.16010000     -30.70110000     -73.02050000
S      -47.52460000     -34.57520000     -73.45990000
S      -41.67400000     -32.62670000     -71.57430000
C      -46.37590000     -35.66690000     -72.48160000
H      -47.05250000     -36.52840000     -72.21450000
H      -45.60800000     -36.02110000     -73.21440000
C      -43.21530000     -32.16560000     -70.59270000
H      -43.97280000     -32.30520000     -71.34640000
H      -43.29330000     -31.20230000     -70.16460000
C      -43.36140000     -33.32000000     -69.52030000
H      -43.31250000     -34.26350000     -70.02010000
H      -42.52110000     -33.26480000     -68.82270000
C      -45.60870000     -35.08360000     -71.30500000
H      -45.00100000     -34.19880000     -71.67940000
H      -44.84770000     -35.82760000     -70.90140000
C      -46.52680000     -34.57060000     -70.21150000
C      -47.83870000     -34.75200000     -70.13320000
C      -45.96390000     -33.65160000     -69.25700000
H      -48.36990000     -35.35480000     -70.82470000
C      -46.96140000     -33.19610000     -68.33070000
C      -44.68110000     -33.09830000     -68.82760000
C      -44.72720000     -32.44900000     -67.60440000
S      -48.57190000     -33.96360000     -68.73270000
S      -46.42890000     -32.30680000     -67.01690000
H      -43.99640000     -31.73670000     -67.21880000
