40
Properties=species:S:1:pos:R:3 #=T CELL(abcABC):=T 1.889726e+02=T 90.00000=T Traj:=T positionsangstrom=T Step:=T 0=T Bead:=T pbc="F F F"
C      -43.62310000     -36.60150000     -72.36030000
C      -43.06850000     -35.25300000     -72.48070000
C      -42.65010000     -34.54400000     -71.31260000
C      -42.74480000     -35.12040000     -69.98900000
C      -43.41710000     -36.34870000     -69.92380000
C      -43.84730000     -37.03220000     -71.09900000
H      -43.77310000     -37.12080000     -73.34210000
H      -42.19050000     -33.62450000     -71.45420000
H      -43.63600000     -36.90510000     -68.97610000
H      -44.51020000     -37.91560000     -70.87070000
C      -42.52500000     -34.27080000     -68.70210000
H      -42.24500000     -33.22590000     -68.93870000
H      -41.54800000     -34.63810000     -68.19990000
C      -42.71190000     -34.67720000     -73.82070000
H      -41.82210000     -34.05630000     -73.71560000
H      -42.34690000     -35.45280000     -74.53230000
S      -43.87210000     -34.25110000     -67.44440000
S      -43.99360000     -33.79040000     -74.74500000
C      -45.42660000     -33.91150000     -68.50030000
H      -45.55250000     -34.66510000     -69.26780000
H      -46.30700000     -33.88970000     -67.88690000
C      -43.83190000     -32.09800000     -73.87400000
H      -44.03570000     -31.34910000     -74.59240000
H      -42.81320000     -32.14330000     -73.71530000
C      -44.53890000     -31.71890000     -72.58390000
H      -44.05680000     -32.34450000     -71.81980000
H      -44.17210000     -30.74210000     -72.45930000
C      -45.27850000     -32.57670000     -69.26150000
H      -44.53030000     -32.74000000     -69.98650000
H      -44.96460000     -31.73300000     -68.57650000
C      -46.63540000     -32.24280000     -69.85010000
C      -47.83580000     -32.37770000     -69.19840000
C      -46.81630000     -31.87730000     -71.32720000
H      -47.98460000     -32.65270000     -68.19400000
C      -48.14170000     -31.64160000     -71.59760000
C      -46.01770000     -31.78820000     -72.49010000
C      -46.79630000     -31.64160000     -73.64420000
S      -49.20820000     -32.00390000     -70.24960000
S      -48.47230000     -31.47710000     -73.33940000
H      -46.33650000     -31.61290000     -74.59920000
