40
Properties=species:S:1:pos:R:3 #=T CELL(abcABC):=T 1.889726e+02=T 90.00000=T Traj:=T positionsangstrom=T Step:=T 0=T Bead:=T pbc="F F F"
C      -43.66640000     -33.32790000     -75.49160000
C      -43.82040000     -32.35030000     -74.52530000
C      -45.11130000     -32.30760000     -73.87060000
C      -46.17690000     -33.15030000     -74.16710000
C      -46.02780000     -34.10320000     -75.22990000
C      -44.80690000     -34.17180000     -75.86860000
H      -42.70270000     -33.62040000     -75.99820000
H      -45.21280000     -31.46440000     -73.17470000
H      -46.89940000     -34.72850000     -75.54850000
H      -44.72300000     -34.96810000     -76.58620000
C      -47.33650000     -33.23260000     -73.26840000
H      -48.22200000     -32.75370000     -73.72890000
H      -47.14370000     -32.74400000     -72.29970000
C      -42.73670000     -31.49300000     -73.91160000
H      -42.00480000     -31.24310000     -74.74710000
H      -43.01120000     -30.51690000     -73.54130000
S      -47.92000000     -34.97720000     -72.88320000
S      -41.95500000     -32.39820000     -72.50550000
C      -46.43230000     -35.85440000     -72.20090000
H      -46.76330000     -36.63870000     -71.54740000
H      -45.82120000     -36.25450000     -72.98090000
C      -43.17390000     -31.97000000     -71.17590000
H      -44.16730000     -31.78470000     -71.60640000
H      -42.82220000     -30.99290000     -70.71580000
C      -43.11020000     -33.01440000     -70.04720000
H      -42.96900000     -34.00190000     -70.48780000
H      -42.16100000     -32.78920000     -69.59410000
C      -45.49220000     -35.05980000     -71.29990000
H      -44.97180000     -34.39740000     -71.88650000
H      -44.70250000     -35.70930000     -70.92900000
C      -46.11260000     -34.38970000     -70.05530000
C      -47.39600000     -34.65500000     -69.66440000
C      -45.40910000     -33.50990000     -69.12850000
H      -48.07400000     -35.23520000     -70.23550000
C      -46.24670000     -33.17690000     -68.03760000
C      -44.15620000     -32.83240000     -69.02820000
C      -44.02540000     -32.15580000     -67.81730000
S      -47.84270000     -33.82920000     -68.15160000
S      -45.43060000     -32.35070000     -66.76030000
H      -43.22440000     -31.48310000     -67.58670000
