40
Properties=species:S:1:pos:R:3 #=T CELL(abcABC):=T 1.889726e+02=T 90.00000=T Traj:=T positionsangstrom=T Step:=T 0=T Bead:=T pbc="F F F"
C      -43.88990000     -33.34920000     -75.54700000
C      -44.02160000     -32.44870000     -74.42100000
C      -45.23310000     -32.36490000     -73.77950000
C      -46.27580000     -33.31510000     -74.09570000
C      -46.13560000     -34.25430000     -75.11360000
C      -44.93180000     -34.21110000     -75.88750000
H      -42.93340000     -33.33090000     -76.05640000
H      -45.39650000     -31.79090000     -72.88170000
H      -46.87080000     -35.03510000     -75.31180000
H      -44.89160000     -34.82060000     -76.80150000
C      -47.58110000     -33.24210000     -73.29800000
H      -48.40600000     -32.83010000     -73.89970000
H      -47.50110000     -32.58470000     -72.45800000
C      -42.83090000     -31.50500000     -74.10150000
H      -42.11410000     -31.59310000     -74.94900000
H      -43.17010000     -30.50120000     -73.91490000
S      -48.08950000     -34.97600000     -72.74140000
S      -41.92710000     -32.10070000     -72.54980000
C      -46.36410000     -35.64890000     -72.24950000
H      -46.62840000     -36.59300000     -71.70850000
H      -45.87140000     -35.95030000     -73.18910000
C      -43.12710000     -31.97350000     -71.19580000
H      -44.08290000     -32.19080000     -71.61410000
H      -43.25570000     -30.94560000     -70.82640000
C      -42.92520000     -33.15320000     -70.14380000
H      -42.95350000     -34.08580000     -70.70150000
H      -41.91530000     -33.18890000     -69.62610000
C      -45.57440000     -34.71670000     -71.39990000
H      -45.36540000     -33.73290000     -71.90500000
H      -44.59970000     -35.23900000     -71.29810000
C      -46.14270000     -34.35900000     -70.06370000
C      -47.40810000     -34.58120000     -69.65050000
C      -45.30310000     -33.67480000     -69.08440000
H      -48.26130000     -34.88100000     -70.23220000
C      -46.06690000     -33.28650000     -67.97160000
C      -44.00440000     -33.10460000     -69.05080000
C      -43.79290000     -32.33760000     -67.91870000
S      -47.70610000     -33.87150000     -68.02880000
S      -45.23910000     -32.32430000     -66.85460000
H      -42.88380000     -31.84090000     -67.63160000
