40
Properties=species:S:1:pos:R:3 #=T CELL(abcABC):=T 1.889726e+02=T 90.00000=T Traj:=T positionsangstrom=T Step:=T 0=T Bead:=T pbc="F F F"
C      -43.92650000     -33.32130000     -75.36210000
C      -44.30650000     -32.41670000     -74.44130000
C      -45.67840000     -32.43560000     -73.91900000
C      -46.62930000     -33.34540000     -74.32270000
C      -46.17390000     -34.36370000     -75.30090000
C      -44.85510000     -34.33250000     -75.79840000
H      -42.86650000     -33.30890000     -75.62830000
H      -45.78470000     -31.76390000     -73.08410000
H      -46.91540000     -34.99460000     -75.72410000
H      -44.49410000     -34.98970000     -76.56730000
C      -48.03810000     -33.46360000     -73.90990000
H      -48.63780000     -33.80580000     -74.72510000
H      -48.46320000     -32.49930000     -73.50390000
C      -43.41650000     -31.35760000     -73.94590000
H      -42.90550000     -30.91170000     -74.76720000
H      -44.04630000     -30.50090000     -73.50570000
S      -48.24330000     -34.80210000     -72.50480000
S      -42.12060000     -31.99670000     -72.79680000
C      -46.62930000     -35.65010000     -72.18730000
H      -47.03150000     -36.46270000     -71.59200000
H      -46.26310000     -36.05280000     -73.15230000
C      -43.08040000     -31.93210000     -71.19240000
H      -44.20490000     -31.76990000     -71.44490000
H      -42.73450000     -30.99220000     -70.72500000
C      -42.87430000     -33.20140000     -70.35070000
H      -43.08500000     -34.15500000     -70.92070000
H      -41.84690000     -33.29620000     -70.06660000
C      -45.62440000     -34.83250000     -71.39930000
H      -45.43710000     -33.89060000     -71.87060000
H      -44.62290000     -35.29910000     -71.45790000
C      -45.99650000     -34.50740000     -69.94360000
C      -47.21700000     -34.68140000     -69.40100000
C      -45.12390000     -33.72700000     -68.99950000
H      -48.01080000     -35.31050000     -69.79110000
C      -45.68510000     -33.38470000     -67.77730000
C      -43.81180000     -33.16030000     -69.13360000
C      -43.46580000     -32.35320000     -68.07900000
S      -47.34520000     -33.90140000     -67.78120000
S      -44.81620000     -32.20210000     -66.86130000
H      -42.62800000     -31.70670000     -67.95340000
