40
Properties=species:S:1:pos:R:3 #=T CELL(abcABC):=T 1.889726e+02=T 90.00000=T Traj:=T positionsangstrom=T Step:=T 0=T Bead:=T pbc="F F F"
C      -44.01280000     -33.40170000     -75.48510000
C      -44.51950000     -32.42650000     -74.58560000
C      -45.76880000     -32.51150000     -74.03450000
C      -46.66440000     -33.59200000     -74.39570000
C      -46.12990000     -34.59790000     -75.16930000
C      -44.83180000     -34.48630000     -75.77970000
H      -43.06600000     -33.12420000     -75.93070000
H      -46.07600000     -31.56990000     -73.55760000
H      -46.76000000     -35.50380000     -75.34730000
H      -44.50850000     -35.26360000     -76.50720000
C      -48.11640000     -33.58640000     -73.80210000
H      -48.81850000     -33.94000000     -74.59510000
H      -48.44490000     -32.55640000     -73.59070000
C      -43.62130000     -31.26660000     -74.12640000
H      -43.15090000     -30.82020000     -75.00420000
H      -44.23250000     -30.55780000     -73.59670000
S      -48.37310000     -34.55490000     -72.28050000
S      -42.26930000     -31.88540000     -72.94570000
C      -46.75520000     -35.50240000     -72.03840000
H      -46.91790000     -36.42470000     -71.42320000
H      -46.39930000     -35.88710000     -72.97000000
C      -43.09810000     -31.91700000     -71.30500000
H      -44.14030000     -31.85980000     -71.41610000
H      -42.86240000     -31.02240000     -70.73490000
C      -42.79860000     -33.13000000     -70.42770000
H      -42.93960000     -34.01860000     -71.05550000
H      -41.83190000     -33.11450000     -69.99350000
C      -45.62280000     -34.73170000     -71.33370000
H      -45.33230000     -33.86510000     -71.98490000
H      -44.69370000     -35.36780000     -71.36880000
C      -45.96000000     -34.33010000     -69.97460000
C      -47.08080000     -34.64900000     -69.30370000
C      -45.08830000     -33.58720000     -69.10170000
H      -47.86260000     -35.25250000     -69.71270000
C      -45.61550000     -33.29500000     -67.84620000
C      -43.73210000     -33.11490000     -69.25450000
C      -43.39260000     -32.42100000     -68.11620000
S      -47.21490000     -34.00740000     -67.67870000
S      -44.55040000     -32.40910000     -66.79840000
H      -42.38870000     -32.04600000     -68.01090000
