40
Properties=species:S:1:pos:R:3 #=T CELL(abcABC):=T 1.889726e+02=T 90.00000=T Traj:=T positionsangstrom=T Step:=T 0=T Bead:=T pbc="F F F"
C      -44.07650000     -33.53230000     -75.32460000
C      -44.63730000     -32.45600000     -74.55460000
C      -45.95520000     -32.52530000     -74.10450000
C      -46.79840000     -33.59900000     -74.47270000
C      -46.28940000     -34.57920000     -75.29460000
C      -44.94560000     -34.59280000     -75.69210000
H      -42.98870000     -33.51360000     -75.48060000
H      -46.35010000     -31.82430000     -73.36250000
H      -46.96060000     -35.44620000     -75.54580000
H      -44.63800000     -35.51550000     -76.24990000
C      -48.22970000     -33.72320000     -74.00250000
H      -48.88310000     -34.35200000     -74.66090000
H      -48.67710000     -32.75120000     -73.94250000
C      -43.71430000     -31.30910000     -74.31320000
H      -43.23590000     -31.15320000     -75.34070000
H      -44.00970000     -30.39930000     -73.84170000
S      -48.34560000     -34.37350000     -72.17200000
S      -42.34560000     -31.78340000     -73.13750000
C      -46.88130000     -35.46920000     -71.93200000
H      -47.25090000     -36.30450000     -71.32000000
H      -46.71540000     -35.80970000     -72.92740000
C      -43.32690000     -31.66160000     -71.50360000
H      -44.38890000     -31.58320000     -71.61250000
H      -42.95020000     -30.67280000     -70.99810000
C      -42.89880000     -32.79780000     -70.63190000
H      -42.88940000     -33.74990000     -71.17880000
H      -41.81330000     -32.57780000     -70.34830000
C      -45.59700000     -34.88010000     -71.30560000
H      -45.08630000     -34.10550000     -71.88980000
H      -44.91980000     -35.73150000     -71.16960000
C      -45.87030000     -34.35530000     -69.84580000
C      -47.00930000     -34.73120000     -69.14200000
C      -45.02270000     -33.52480000     -69.11260000
H      -47.93500000     -35.16630000     -69.44840000
C      -45.50100000     -33.28990000     -67.83260000
C      -43.70240000     -32.95510000     -69.31000000
C      -43.22000000     -32.44730000     -68.09290000
S      -47.00490000     -34.06180000     -67.52350000
S      -44.33970000     -32.66690000     -66.71120000
H      -42.23570000     -32.02810000     -67.92380000
