40
Properties=species:S:1:pos:R:3 #=T CELL(abcABC):=T 1.889726e+02=T 90.00000=T Traj:=T positionsangstrom=T Step:=T 0=T Bead:=T pbc="F F F"
C      -47.77030000     -30.97250000     -71.02570000
C      -47.36090000     -31.45270000     -69.78860000
C      -47.59870000     -32.70240000     -69.30970000
C      -48.38880000     -33.59650000     -70.04090000
C      -48.93730000     -33.13460000     -71.24650000
C      -48.60830000     -31.87070000     -71.74520000
H      -47.67550000     -29.96400000     -71.21930000
H      -47.23790000     -32.98790000     -68.26320000
H      -49.65590000     -33.67080000     -71.83190000
H      -49.04370000     -31.55530000     -72.70970000
C      -48.70570000     -35.01450000     -69.62690000
H      -49.75890000     -35.17570000     -69.55350000
H      -48.15440000     -35.26650000     -68.71360000
C      -46.61570000     -30.40650000     -68.96330000
H      -46.62010000     -29.47120000     -69.51980000
H      -47.14770000     -30.24120000     -67.96850000
S      -48.17330000     -36.32450000     -70.83820000
S      -44.86960000     -30.68470000     -68.43600000
C      -46.43730000     -36.12010000     -71.37070000
H      -45.74030000     -36.35420000     -70.54780000
H      -46.36630000     -36.90980000     -72.15540000
C      -43.99280000     -31.22160000     -69.98690000
H      -43.11720000     -30.64110000     -70.14980000
H      -44.58900000     -30.91450000     -70.73970000
C      -43.76700000     -32.71880000     -69.95270000
H      -43.45080000     -33.12970000     -68.97500000
H      -44.80110000     -33.19060000     -70.06330000
C      -46.17780000     -34.71100000     -71.87300000
H      -46.16710000     -34.01860000     -70.95960000
H      -47.07970000     -34.36620000     -72.43110000
C      -44.86250000     -34.57260000     -72.69600000
C      -44.72700000     -35.05660000     -74.00900000
C      -43.52920000     -33.89750000     -72.33120000
H      -45.39590000     -35.73600000     -74.55600000
C      -42.63540000     -33.91040000     -73.35400000
C      -42.94020000     -33.25030000     -71.10260000
C      -41.61230000     -32.91970000     -71.31650000
S      -43.18010000     -34.61210000     -74.79580000
S      -41.03340000     -33.30970000     -72.88070000
H      -41.00860000     -32.41310000     -70.59960000
