40
Properties=species:S:1:pos:R:3 #=T CELL(abcABC):=T 1.889726e+02=T 90.00000=T Traj:=T positionsangstrom=T Step:=T 0=T Bead:=T pbc="F F F"
C      -48.12360000     -30.92880000     -70.96340000
C      -47.33540000     -31.34380000     -69.82720000
C      -47.41390000     -32.64270000     -69.35830000
C      -48.28390000     -33.55780000     -69.95320000
C      -49.12590000     -33.10250000     -71.01560000
C      -49.07590000     -31.82900000     -71.55310000
H      -47.93180000     -29.93510000     -71.37090000
H      -46.69690000     -33.01380000     -68.54180000
H      -49.77860000     -33.80200000     -71.57060000
H      -49.61700000     -31.51350000     -72.39130000
C      -48.33390000     -35.02190000     -69.48950000
H      -49.29740000     -35.29070000     -69.02210000
H      -47.72380000     -35.19860000     -68.55610000
C      -46.57430000     -30.23490000     -69.06140000
H      -46.54340000     -29.23690000     -69.48250000
H      -47.31420000     -30.02710000     -68.23110000
S      -48.13110000     -36.24010000     -70.82260000
S      -44.86240000     -30.57950000     -68.45420000
C      -46.43320000     -36.03900000     -71.33460000
H      -45.80320000     -36.13600000     -70.49060000
H      -46.17230000     -36.92960000     -71.95210000
C      -44.02420000     -31.45680000     -69.90470000
H      -42.96530000     -31.06640000     -69.84300000
H      -44.61600000     -31.14640000     -70.83260000
C      -43.92020000     -33.01710000     -69.93500000
H      -43.48470000     -33.32930000     -69.03390000
H      -44.94160000     -33.45720000     -70.14180000
C      -46.15890000     -34.73100000     -72.14250000
H      -46.24620000     -33.90740000     -71.42130000
H      -46.95010000     -34.50970000     -72.78920000
C      -44.78970000     -34.59570000     -72.86970000
C      -44.58600000     -35.19130000     -74.15590000
C      -43.53690000     -34.08040000     -72.33610000
H      -45.31530000     -35.67950000     -74.80550000
C      -42.49660000     -34.07380000     -73.32960000
C      -43.10240000     -33.32650000     -71.14210000
C      -41.82530000     -32.73540000     -71.30130000
S      -43.01050000     -34.85040000     -74.83930000
S      -41.08190000     -33.10580000     -72.85990000
H      -41.39490000     -32.24280000     -70.45400000
