40
Properties=species:S:1:pos:R:3 #=T CELL(abcABC):=T 1.889726e+02=T 90.00000=T Traj:=T positionsangstrom=T Step:=T 0=T Bead:=T pbc="F F F"
C      -43.92280000     -36.66540000     -72.09740000
C      -43.05070000     -35.87100000     -71.32140000
C      -42.50590000     -34.72250000     -71.93310000
C      -42.86660000     -34.35190000     -73.24290000
C      -43.89540000     -35.05170000     -73.84180000
C      -44.41840000     -36.25720000     -73.29580000
H      -44.21860000     -37.64430000     -71.74240000
H      -41.81290000     -34.17320000     -71.22770000
H      -44.18520000     -34.80830000     -74.90570000
H      -45.14350000     -36.82170000     -73.81250000
C      -42.22680000     -33.02440000     -73.61290000
H      -41.69940000     -33.08700000     -74.57470000
H      -41.45510000     -32.78050000     -72.77750000
C      -42.61030000     -36.20090000     -69.92620000
H      -42.72680000     -37.26460000     -69.58710000
H      -41.57590000     -35.82340000     -69.81790000
S      -43.54060000     -31.65710000     -73.81050000
S      -43.48950000     -35.19360000     -68.53450000
C      -43.76720000     -30.72900000     -72.26400000
H      -42.76450000     -30.39970000     -71.81310000
H      -44.21580000     -29.83270000     -72.64210000
C      -45.23230000     -34.83240000     -69.16230000
H      -45.89130000     -35.70590000     -68.91230000
H      -45.20000000     -34.78590000     -70.28840000
C      -45.60680000     -33.44390000     -68.64090000
H      -45.82810000     -33.35180000     -67.59470000
H      -44.84830000     -32.74500000     -68.87170000
C      -44.57520000     -31.47010000     -71.22930000
H      -44.47860000     -30.89600000     -70.27660000
H      -44.21200000     -32.53060000     -71.02580000
C      -46.00440000     -31.69340000     -71.52900000
C      -46.71470000     -31.14980000     -72.58050000
C      -46.96260000     -32.35350000     -70.65840000
H      -46.15250000     -30.54860000     -73.33230000
C      -48.25890000     -32.29800000     -71.06100000
C      -46.86150000     -32.99100000     -69.28100000
C      -48.12420000     -33.34840000     -68.80320000
S      -48.41050000     -31.40500000     -72.60420000
S      -49.41160000     -32.98340000     -69.90850000
H      -48.27010000     -33.89990000     -67.83700000
