40
Properties=species:S:1:pos:R:3 #=T CELL(abcABC):=T 1.889726e+02=T 90.00000=T Traj:=T positionsangstrom=T Step:=T 0=T Bead:=T pbc="F F F"
C      -44.07690000     -33.69390000     -75.07100000
C      -44.83200000     -32.54030000     -74.66930000
C      -46.21050000     -32.61940000     -74.33800000
C      -46.80250000     -33.91170000     -74.24860000
C      -46.06580000     -35.03130000     -74.71130000
C      -44.73060000     -34.88690000     -75.12980000
H      -43.09480000     -33.57920000     -75.39660000
H      -46.78070000     -31.73380000     -73.98460000
H      -46.68380000     -35.93580000     -74.81240000
H      -44.14460000     -35.68790000     -75.58800000
C      -48.22580000     -34.14720000     -73.82700000
H      -48.37950000     -35.21210000     -73.72130000
H      -48.96890000     -33.92150000     -74.57600000
C      -44.06190000     -31.21330000     -74.62040000
H      -43.47980000     -31.05160000     -75.58430000
H      -44.84390000     -30.43690000     -74.38560000
S      -48.86350000     -33.27360000     -72.39350000
S      -42.72570000     -31.15320000     -73.30540000
C      -48.25100000     -34.23770000     -70.96340000
H      -48.48590000     -33.64000000     -70.08220000
H      -48.94280000     -35.11430000     -70.87450000
C      -43.57720000     -31.68870000     -71.68590000
H      -44.68790000     -31.39670000     -71.73820000
H      -43.06020000     -31.11770000     -70.92260000
C      -43.40850000     -33.21150000     -71.40110000
H      -43.98900000     -33.82150000     -72.04530000
H      -42.36500000     -33.45810000     -71.59550000
C      -46.82180000     -34.71850000     -70.93330000
H      -46.20580000     -34.28470000     -71.73300000
H      -46.75050000     -35.72950000     -71.05650000
C      -46.19730000     -34.43910000     -69.51690000
C      -46.93530000     -34.73930000     -68.36420000
C      -44.91160000     -33.83650000     -69.24460000
H      -47.78840000     -35.33530000     -68.37910000
C      -44.76130000     -33.65690000     -67.81090000
C      -43.70150000     -33.38900000     -69.90700000
C      -42.83020000     -32.76290000     -69.03320000
S      -45.93340000     -34.53620000     -66.90210000
S      -43.22250000     -33.02840000     -67.36330000
H      -41.85810000     -32.33350000     -69.22310000
