40
Properties=species:S:1:pos:R:3 #=T CELL(abcABC):=T 1.889726e+02=T 90.00000=T Traj:=T positionsangstrom=T Step:=T 0=T Bead:=T pbc="F F F"
C      -45.32550000     -30.53200000     -75.17360000
C      -44.92000000     -30.75120000     -73.81990000
C      -45.96640000     -30.91330000     -72.90540000
C      -47.32190000     -30.97760000     -73.26440000
C      -47.62080000     -30.77660000     -74.59920000
C      -46.64750000     -30.43350000     -75.53060000
H      -44.66000000     -30.23530000     -75.93540000
H      -45.73500000     -30.98970000     -71.88520000
H      -48.67580000     -30.72190000     -74.94900000
H      -47.00210000     -30.18260000     -76.51470000
C      -48.32340000     -31.33620000     -72.18070000
H      -48.91490000     -32.18580000     -72.51760000
H      -49.05960000     -30.49550000     -72.06940000
C      -43.53460000     -30.78500000     -73.32490000
H      -42.81670000     -30.48240000     -74.14240000
H      -43.33180000     -30.14300000     -72.39130000
S      -47.83590000     -31.47760000     -70.40930000
S      -42.93480000     -32.55500000     -72.87150000
C      -47.21690000     -33.20420000     -70.34940000
H      -47.95580000     -34.00250000     -70.44390000
H      -46.58510000     -33.41520000     -71.22400000
C      -42.58070000     -32.29020000     -71.02550000
H      -42.60650000     -31.17090000     -70.85390000
H      -41.59620000     -32.68580000     -70.78180000
C      -43.57670000     -32.92390000     -70.10360000
H      -43.32420000     -32.79820000     -69.03160000
H      -44.57140000     -32.41110000     -70.35490000
C      -46.59870000     -33.37350000     -68.95990000
H      -47.35910000     -33.22170000     -68.23030000
H      -45.80090000     -32.66230000     -68.65600000
C      -46.06520000     -34.73910000     -68.85180000
C      -46.71280000     -35.88560000     -68.42700000
C      -44.83810000     -35.07720000     -69.62880000
H      -47.66960000     -35.89880000     -67.95120000
C      -44.67780000     -36.44920000     -69.76620000
C      -43.78280000     -34.39950000     -70.25830000
C      -42.84700000     -35.19940000     -70.88660000
S      -45.93050000     -37.33730000     -68.94840000
S      -43.26470000     -36.91480000     -70.65480000
H      -41.95420000     -34.76190000     -71.38050000
