40
Properties=species:S:1:pos:R:3 #=T CELL(abcABC):=T 1.889726e+02=T 90.00000=T Traj:=T positionsangstrom=T Step:=T 0=T Bead:=T pbc="F F F"
C      -45.29670000     -30.54170000     -74.96240000
C      -44.90320000     -30.70330000     -73.63880000
C      -45.93490000     -30.83070000     -72.67930000
C      -47.30990000     -30.82470000     -73.08230000
C      -47.59760000     -30.61810000     -74.45620000
C      -46.60020000     -30.50520000     -75.41650000
H      -44.46750000     -30.32390000     -75.66460000
H      -45.63380000     -31.03800000     -71.61210000
H      -48.59480000     -30.80860000     -74.77830000
H      -46.80180000     -30.57380000     -76.48930000
C      -48.43670000     -31.19050000     -72.14900000
H      -48.83610000     -32.18330000     -72.49550000
H      -49.22490000     -30.45380000     -72.34610000
C      -43.44910000     -30.68760000     -73.27680000
H      -42.88980000     -30.38100000     -74.17640000
H      -43.27020000     -29.97580000     -72.46470000
S      -47.98070000     -31.52490000     -70.38280000
S      -42.79240000     -32.32940000     -72.73520000
C      -47.35150000     -33.26950000     -70.28460000
H      -48.21610000     -33.95590000     -70.44560000
H      -46.64390000     -33.36840000     -71.06000000
C      -42.68660000     -32.15980000     -70.92410000
H      -42.81760000     -31.14440000     -70.56300000
H      -41.68950000     -32.52270000     -70.50420000
C      -43.82790000     -32.89940000     -70.21750000
H      -43.67730000     -32.76930000     -69.11140000
H      -44.74090000     -32.33230000     -70.47230000
C      -46.73510000     -33.56750000     -68.92980000
H      -47.39600000     -33.60480000     -68.05790000
H      -46.04620000     -32.79810000     -68.69710000
C      -46.15380000     -34.94360000     -69.13980000
C      -46.72090000     -36.09350000     -68.69890000
C      -44.94320000     -35.20180000     -69.90740000
H      -47.69180000     -36.08570000     -68.12750000
C      -44.66690000     -36.54830000     -69.97030000
C      -43.86020000     -34.39240000     -70.45910000
C      -42.84280000     -35.13240000     -70.97030000
S      -45.77120000     -37.51960000     -68.93990000
S      -43.10700000     -36.86510000     -70.81170000
H      -41.92670000     -34.84800000     -71.42340000
