40
Properties=species:S:1:pos:R:3 #=T CELL(abcABC):=T 1.889726e+02=T 90.00000=T Traj:=T positionsangstrom=T Step:=T 0=T Bead:=T pbc="F F F"
C      -45.37420000     -30.49280000     -75.06440000
C      -44.94350000     -30.65600000     -73.69760000
C      -45.95280000     -30.75530000     -72.73370000
C      -47.29850000     -30.80200000     -73.02070000
C      -47.67740000     -30.74190000     -74.38250000
C      -46.68660000     -30.44740000     -75.33900000
H      -44.56110000     -30.42150000     -75.83680000
H      -45.58290000     -30.75410000     -71.74570000
H      -48.76890000     -30.63180000     -74.54120000
H      -47.02110000     -30.17520000     -76.38300000
C      -48.33690000     -31.05420000     -71.99510000
H      -48.96720000     -31.80440000     -72.42450000
H      -48.96250000     -30.14230000     -71.83870000
C      -43.54310000     -30.56450000     -73.22290000
H      -42.90500000     -30.11190000     -74.00030000
H      -43.51050000     -29.85340000     -72.36840000
S      -47.94870000     -31.55120000     -70.27140000
S      -42.60430000     -32.10010000     -72.73990000
C      -47.40850000     -33.25650000     -70.35980000
H      -48.19810000     -33.94660000     -70.69970000
H      -46.65660000     -33.56810000     -71.10120000
C      -42.81210000     -32.10850000     -70.89420000
H      -42.93740000     -31.05760000     -70.55820000
H      -41.89000000     -32.50380000     -70.57000000
C      -44.03310000     -32.90280000     -70.46570000
H      -44.24430000     -32.50900000     -69.47850000
H      -44.94560000     -32.73320000     -71.03040000
C      -46.91500000     -33.74030000     -68.99380000
H      -47.78900000     -33.88340000     -68.30130000
H      -46.31840000     -32.91330000     -68.56140000
C      -46.09880000     -35.08400000     -68.98840000
C      -46.64400000     -36.25010000     -68.52740000
C      -44.83930000     -35.27170000     -69.69680000
H      -47.58170000     -36.39140000     -68.03240000
C      -44.54560000     -36.60400000     -69.86840000
C      -43.84320000     -34.41130000     -70.36370000
C      -42.82820000     -35.09050000     -70.98460000
S      -45.77610000     -37.67290000     -69.24800000
S      -43.07740000     -36.90010000     -70.80510000
H      -41.98570000     -34.76300000     -71.55120000
