40
Properties=species:S:1:pos:R:3 #=T CELL(abcABC):=T 1.889726e+02=T 90.00000=T Traj:=T positionsangstrom=T Step:=T 0=T Bead:=T pbc="F F F"
C      -45.26710000     -30.49680000     -74.75180000
C      -44.99400000     -30.30120000     -73.36440000
C      -46.04450000     -30.36070000     -72.46230000
C      -47.36650000     -30.71450000     -72.84700000
C      -47.63620000     -30.98670000     -74.18930000
C      -46.59350000     -30.90440000     -75.15410000
H      -44.58950000     -30.23540000     -75.48610000
H      -45.86850000     -30.15710000     -71.36270000
H      -48.60180000     -31.31890000     -74.58480000
H      -46.83320000     -31.14890000     -76.20670000
C      -48.45940000     -30.77800000     -71.78400000
H      -49.35140000     -31.40090000     -72.16100000
H      -48.92320000     -29.80840000     -71.60800000
C      -43.54870000     -30.20060000     -72.87620000
H      -42.91740000     -29.59740000     -73.59130000
H      -43.54320000     -29.82460000     -71.84310000
S      -47.90600000     -31.47680000     -70.14370000
S      -42.68140000     -31.83330000     -72.81230000
C      -47.57440000     -33.24860000     -70.46910000
H      -48.59360000     -33.70960000     -70.72710000
H      -46.92260000     -33.33460000     -71.32600000
C      -42.75170000     -32.25470000     -70.98640000
H      -42.87710000     -31.27940000     -70.60840000
H      -41.76580000     -32.69360000     -70.66800000
C      -44.00800000     -32.98680000     -70.53690000
H      -44.40780000     -32.70250000     -69.55100000
H      -44.83000000     -32.86230000     -71.23900000
C      -47.06070000     -33.98970000     -69.19530000
H      -47.82540000     -34.29070000     -68.51350000
H      -46.47790000     -33.17110000     -68.65580000
C      -46.20210000     -35.22670000     -69.50900000
C      -46.82600000     -36.41750000     -69.14370000
C      -44.90790000     -35.40340000     -70.11270000
H      -47.72600000     -36.66620000     -68.60330000
C      -44.55340000     -36.75390000     -70.16590000
C      -43.83680000     -34.48770000     -70.51990000
C      -42.69210000     -35.19690000     -70.85570000
S      -45.71780000     -37.77650000     -69.41620000
S      -42.86680000     -36.93780000     -70.60560000
H      -41.77450000     -34.65960000     -71.16890000
