40
Properties=species:S:1:pos:R:3 #=T CELL(abcABC):=T 1.889726e+02=T 90.00000=T Traj:=T positionsangstrom=T Step:=T 0=T Bead:=T pbc="F F F"
C      -47.82180000     -31.03580000     -72.85010000
C      -47.56330000     -30.82610000     -71.49730000
C      -47.94930000     -31.79840000     -70.51540000
C      -48.58060000     -32.98220000     -70.96100000
C      -48.69990000     -33.17820000     -72.31310000
C      -48.36470000     -32.21920000     -73.25460000
H      -47.48510000     -30.43840000     -73.68960000
H      -47.81220000     -31.70890000     -69.41410000
H      -49.05550000     -34.15280000     -72.54480000
H      -48.68080000     -32.35710000     -74.28890000
C      -48.98910000     -34.02170000     -69.89900000
H      -50.10100000     -34.16180000     -69.77190000
H      -48.53980000     -33.84750000     -68.92630000
C      -46.75110000     -29.53190000     -71.05980000
H      -46.15060000     -29.16550000     -71.86310000
H      -47.34820000     -28.71300000     -70.72310000
S      -48.35630000     -35.71880000     -70.17070000
S      -45.62830000     -29.91520000     -69.69860000
C      -46.54690000     -35.76380000     -70.43610000
H      -46.00780000     -35.53890000     -69.49120000
H      -46.39490000     -36.83660000     -70.57590000
C      -44.13270000     -30.66490000     -70.59670000
H      -43.38070000     -30.58330000     -69.88720000
H      -43.88070000     -30.15760000     -71.50880000
C      -44.48130000     -32.05660000     -71.02970000
H      -44.98270000     -32.66360000     -70.25970000
H      -45.16960000     -32.00580000     -71.85370000
C      -45.95080000     -34.90960000     -71.59720000
H      -46.21970000     -33.83020000     -71.50590000
H      -46.43190000     -35.20990000     -72.50740000
C      -44.47160000     -35.24360000     -71.78240000
C      -44.00880000     -36.50490000     -72.06730000
C      -43.39010000     -34.29340000     -71.79100000
H      -44.64730000     -37.39760000     -72.16640000
C      -42.11300000     -34.88310000     -72.01220000
C      -43.27830000     -32.90570000     -71.49780000
C      -41.96420000     -32.46230000     -71.48040000
S      -42.27770000     -36.60810000     -72.25060000
S      -40.81810000     -33.71020000     -71.89000000
H      -41.66270000     -31.52500000     -71.29250000
