40
Properties=species:S:1:pos:R:3 #=T CELL(abcABC):=T 1.889726e+02=T 90.00000=T Traj:=T positionsangstrom=T Step:=T 0=T Bead:=T pbc="F F F"
C      -47.69910000     -31.07020000     -72.86520000
C      -47.51810000     -30.77150000     -71.50260000
C      -48.01030000     -31.74050000     -70.59140000
C      -48.56850000     -32.98780000     -70.95730000
C      -48.67080000     -33.26470000     -72.33820000
C      -48.27790000     -32.25910000     -73.25910000
H      -47.42860000     -30.37600000     -73.58770000
H      -47.73170000     -31.60870000     -69.53350000
H      -48.96100000     -34.19320000     -72.69460000
H      -48.35810000     -32.51130000     -74.34880000
C      -48.93980000     -33.97040000     -69.88520000
H      -50.04070000     -33.98580000     -69.73090000
H      -48.61700000     -33.55790000     -68.95580000
C      -47.04960000     -29.48300000     -70.98770000
H      -46.69770000     -28.83170000     -71.81870000
H      -47.84390000     -29.06440000     -70.31490000
S      -48.30550000     -35.70830000     -70.23430000
S      -45.60010000     -29.80710000     -69.78790000
C      -46.47260000     -35.51750000     -70.27810000
H      -46.19620000     -34.83940000     -69.46670000
H      -46.05120000     -36.45580000     -70.09250000
C      -44.22780000     -30.54700000     -70.80710000
H      -43.33500000     -30.57210000     -70.07630000
H      -43.90610000     -29.90180000     -71.64120000
C      -44.48600000     -31.99390000     -71.30650000
H      -45.21870000     -32.48190000     -70.65230000
H      -45.06840000     -31.79460000     -72.26280000
C      -45.99930000     -35.05070000     -71.68700000
H      -46.30170000     -34.04190000     -71.85850000
H      -46.45640000     -35.80030000     -72.37950000
C      -44.52140000     -35.32370000     -71.79290000
C      -44.02880000     -36.55520000     -72.13530000
C      -43.40940000     -34.33320000     -71.71700000
H      -44.54270000     -37.42690000     -72.44090000
C      -42.17540000     -34.94270000     -71.86540000
C      -43.27630000     -32.94930000     -71.49900000
C      -41.99250000     -32.52730000     -71.46200000
S      -42.20560000     -36.62300000     -72.21030000
S      -40.85400000     -33.85150000     -71.63950000
H      -41.69390000     -31.58240000     -71.27750000
