40
Properties=species:S:1:pos:R:3 #=T CELL(abcABC):=T 1.889726e+02=T 90.00000=T Traj:=T positionsangstrom=T Step:=T 0=T Bead:=T pbc="F F F"
C      -47.63540000     -31.08510000     -72.87260000
C      -47.54780000     -30.75540000     -71.49090000
C      -47.97240000     -31.75200000     -70.57640000
C      -48.57230000     -32.92980000     -70.99110000
C      -48.60950000     -33.25300000     -72.38400000
C      -48.23160000     -32.26060000     -73.29410000
H      -47.45840000     -30.20680000     -73.53980000
H      -48.16290000     -31.35430000     -69.56050000
H      -49.16410000     -34.07070000     -72.80260000
H      -48.44190000     -32.49700000     -74.32570000
C      -49.04200000     -33.99720000     -70.01550000
H      -50.07450000     -34.25480000     -70.17100000
H      -49.01410000     -33.55540000     -68.96910000
C      -46.84270000     -29.43430000     -71.11500000
H      -46.63550000     -28.86620000     -71.99380000
H      -47.48150000     -28.75360000     -70.60060000
S      -48.25840000     -35.65040000     -70.17860000
S      -45.53330000     -29.65280000     -69.94780000
C      -46.45460000     -35.17120000     -70.38490000
H      -46.37020000     -34.16760000     -69.96880000
H      -45.84490000     -35.82760000     -69.64820000
C      -44.24360000     -30.69820000     -70.79980000
H      -43.45770000     -30.72930000     -70.06760000
H      -43.84970000     -30.10090000     -71.61070000
C      -44.63420000     -32.07300000     -71.28660000
H      -45.35140000     -32.48050000     -70.60320000
H      -45.15590000     -32.10330000     -72.25340000
C      -45.96640000     -35.28640000     -71.81270000
H      -46.24080000     -34.39610000     -72.36490000
H      -46.44790000     -36.11920000     -72.37470000
C      -44.49580000     -35.49400000     -71.86620000
C      -43.92840000     -36.66770000     -72.19460000
C      -43.46900000     -34.46500000     -71.59000000
H      -44.39050000     -37.59650000     -72.20570000
C      -42.17940000     -34.97000000     -71.70230000
C      -43.43010000     -33.03420000     -71.40260000
C      -42.18100000     -32.52360000     -71.36980000
S      -42.15050000     -36.71190000     -72.11980000
S      -40.94890000     -33.77680000     -71.50900000
H      -41.92030000     -31.53760000     -71.25640000
