40
Properties=species:S:1:pos:R:3 #=T CELL(abcABC):=T 1.889726e+02=T 90.00000=T Traj:=T positionsangstrom=T Step:=T 0=T Bead:=T pbc="F F F"
C      -43.75010000     -36.55220000     -72.04530000
C      -42.99840000     -35.69120000     -71.22210000
C      -42.50260000     -34.44120000     -71.72200000
C      -42.73650000     -34.12740000     -73.10800000
C      -43.38550000     -35.05070000     -73.92810000
C      -43.78940000     -36.27190000     -73.40320000
H      -44.08640000     -37.45830000     -71.56720000
H      -42.04460000     -33.72120000     -71.09600000
H      -43.39610000     -34.93740000     -74.99790000
H      -44.33180000     -36.98160000     -74.06890000
C      -42.41940000     -32.81890000     -73.70700000
H      -41.87610000     -33.00540000     -74.66990000
H      -41.69580000     -32.40550000     -73.02290000
C      -42.65460000     -36.07360000     -69.72790000
H      -42.77880000     -37.15820000     -69.74260000
H      -41.61050000     -35.71750000     -69.61190000
S      -43.75050000     -31.60150000     -74.02730000
S      -43.61580000     -35.22030000     -68.33530000
C      -43.93670000     -30.87860000     -72.29690000
H      -42.99420000     -30.46180000     -71.91870000
H      -44.43420000     -29.85870000     -72.28480000
C      -45.06730000     -34.61720000     -69.29620000
H      -45.83410000     -35.41910000     -69.43650000
H      -44.62370000     -34.40590000     -70.28780000
C      -45.68160000     -33.41230000     -68.54050000
H      -45.93770000     -33.89460000     -67.63050000
H      -44.87200000     -32.65980000     -68.53660000
C      -44.60470000     -31.93220000     -71.38390000
H      -44.37450000     -31.58910000     -70.36990000
H      -44.18050000     -32.89310000     -71.59170000
C      -46.08060000     -32.02020000     -71.61320000
C      -46.66870000     -31.44470000     -72.70760000
C      -47.00430000     -32.50480000     -70.62580000
H      -46.13520000     -31.05580000     -73.59160000
C      -48.31170000     -32.34290000     -71.04910000
C      -46.91870000     -32.96720000     -69.29710000
C      -48.14160000     -33.26750000     -68.76710000
S      -48.37690000     -31.62310000     -72.63590000
S      -49.49850000     -32.80620000     -69.83810000
H      -48.42240000     -33.57110000     -67.76100000
