40
Properties=species:S:1:pos:R:3 #=T CELL(abcABC):=T 1.889726e+02=T 90.00000=T Traj:=T positionsangstrom=T Step:=T 0=T Bead:=T pbc="F F F"
C      -45.81080000     -32.40180000     -74.99650000
C      -46.37300000     -33.25660000     -74.04390000
C      -45.61530000     -34.35180000     -73.57100000
C      -44.18060000     -34.35310000     -73.93140000
C      -43.66760000     -33.34940000     -74.71530000
C      -44.44570000     -32.40270000     -75.34090000
H      -46.51060000     -31.57360000     -75.40860000
H      -46.08340000     -35.07120000     -72.81040000
H      -42.56950000     -33.34160000     -74.77120000
H      -43.99290000     -31.61100000     -75.93450000
C      -43.24410000     -35.45890000     -73.41150000
H      -42.55920000     -35.75140000     -74.17010000
H      -43.84720000     -36.37190000     -73.22350000
C      -47.82820000     -33.17510000     -73.76440000
H      -48.35060000     -33.73560000     -74.59760000
H      -47.96140000     -33.72750000     -72.86480000
S      -42.31690000     -35.11630000     -71.78320000
S      -48.42070000     -31.47320000     -73.40000000
C      -42.22220000     -33.31770000     -71.80410000
H      -41.27710000     -33.09590000     -71.31700000
H      -42.04320000     -32.98360000     -72.81940000
C      -48.31900000     -31.77250000     -71.55510000
H      -48.77910000     -32.65490000     -71.14820000
H      -48.94600000     -31.00140000     -71.01780000
C      -46.80690000     -31.78540000     -71.08040000
H      -46.14580000     -32.24500000     -71.80900000
H      -46.58340000     -30.72310000     -71.00200000
C      -43.38270000     -32.51890000     -71.14650000
H      -44.21220000     -32.36560000     -71.96150000
H      -42.91670000     -31.57810000     -70.93610000
C      -43.98390000     -33.13670000     -69.90780000
C      -43.18210000     -33.91490000     -69.09490000
C      -45.31290000     -33.09230000     -69.43910000
H      -42.10080000     -34.08610000     -69.12130000
C      -45.46080000     -33.75070000     -68.18540000
C      -46.64420000     -32.56780000     -69.77570000
C      -47.65990000     -32.84290000     -68.89120000
S      -43.93870000     -34.55020000     -67.63370000
S      -47.13340000     -33.86900000     -67.51570000
H      -48.71340000     -32.56680000     -68.84930000
