40
Properties=species:S:1:pos:R:3 #=T CELL(abcABC):=T 1.889726e+02=T 90.00000=T Traj:=T positionsangstrom=T Step:=T 0=T Bead:=T pbc="F F F"
C      -47.84450000     -31.59360000     -73.51220000
C      -47.54070000     -31.07970000     -72.25800000
C      -47.79000000     -31.88980000     -71.08300000
C      -48.48640000     -33.12340000     -71.23260000
C      -48.90940000     -33.53600000     -72.49180000
C      -48.60200000     -32.76670000     -73.66440000
H      -47.83310000     -30.89660000     -74.44110000
H      -47.50260000     -31.46370000     -70.16270000
H      -49.60600000     -34.43710000     -72.56130000
H      -48.86710000     -32.92990000     -74.75370000
C      -48.89590000     -33.92680000     -69.94840000
H      -50.00980000     -33.94400000     -69.79590000
H      -48.38200000     -33.56580000     -69.04970000
C      -47.01310000     -29.69400000     -72.04400000
H      -46.67990000     -29.24150000     -73.07010000
H      -47.75240000     -29.02940000     -71.59810000
S      -48.36580000     -35.66120000     -70.02950000
S      -45.60760000     -29.49920000     -70.94070000
C      -46.51100000     -35.41600000     -70.11880000
H      -46.22810000     -34.69280000     -69.31080000
H      -45.99520000     -36.36370000     -69.86450000
C      -44.48710000     -30.92110000     -71.44480000
H      -43.50990000     -30.48630000     -71.65440000
H      -44.82880000     -31.46170000     -72.33120000
C      -44.32000000     -31.93120000     -70.30940000
H      -44.01500000     -31.46570000     -69.33420000
H      -45.24800000     -32.41670000     -70.14920000
C      -45.88170000     -34.86640000     -71.39260000
H      -45.96990000     -33.75270000     -71.46230000
H      -46.32760000     -35.37760000     -72.28610000
C      -44.41320000     -35.17890000     -71.36280000
C      -43.96150000     -36.42590000     -71.69790000
C      -43.34080000     -34.24570000     -71.14850000
H      -44.56540000     -37.25270000     -71.93500000
C      -42.09910000     -34.84390000     -71.36570000
C      -43.20590000     -32.82270000     -70.73400000
C      -41.91680000     -32.44230000     -70.82880000
S      -42.20410000     -36.51410000     -71.75170000
S      -40.81170000     -33.74400000     -71.22930000
H      -41.60720000     -31.54640000     -70.41800000
