40
Properties=species:S:1:pos:R:3 #=T CELL(abcABC):=T 1.889726e+02=T 90.00000=T Traj:=T positionsangstrom=T Step:=T 0=T Bead:=T pbc="F F F"
C      -48.09430000     -31.77130000     -73.60150000
C      -47.93040000     -31.11250000     -72.34510000
C      -48.07390000     -31.89350000     -71.15460000
C      -48.60640000     -33.14740000     -71.20610000
C      -48.92820000     -33.76540000     -72.46140000
C      -48.57120000     -33.07700000     -73.60790000
H      -47.93820000     -31.24400000     -74.51910000
H      -47.93530000     -31.37570000     -70.21670000
H      -49.35640000     -34.72660000     -72.41110000
H      -48.69930000     -33.54130000     -74.54430000
C      -48.73960000     -33.80210000     -69.83850000
H      -49.83580000     -33.93100000     -69.60520000
H      -48.17720000     -33.09350000     -69.21420000
C      -47.39720000     -29.74130000     -72.37670000
H      -47.09540000     -29.39510000     -73.43250000
H      -48.03640000     -28.95060000     -72.05570000
S      -48.21900000     -35.53190000     -69.90540000
S      -45.81940000     -29.63260000     -71.36780000
C      -46.36970000     -35.59050000     -70.19370000
H      -46.03660000     -35.34850000     -69.21570000
H      -46.17770000     -36.69020000     -70.37420000
C      -44.66900000     -31.10700000     -71.71010000
H      -43.86500000     -30.80570000     -72.40730000
H      -45.26820000     -31.89840000     -72.13240000
C      -44.15350000     -31.71710000     -70.33520000
H      -43.75250000     -30.92820000     -69.66670000
H      -45.06150000     -32.11640000     -69.89640000
C      -45.80160000     -34.72740000     -71.32940000
H      -46.02480000     -33.65490000     -71.14910000
H      -46.28850000     -35.08320000     -72.25370000
C      -44.32730000     -35.04540000     -71.42280000
C      -43.87930000     -36.25610000     -71.95710000
C      -43.25740000     -34.12460000     -71.05640000
H      -44.54880000     -37.11850000     -72.19460000
C      -42.00130000     -34.75990000     -71.16490000
C      -43.07870000     -32.78130000     -70.53300000
C      -41.76700000     -32.50170000     -70.28840000
S      -42.13520000     -36.35860000     -72.01540000
S      -40.63850000     -33.77740000     -70.65430000
H      -41.37920000     -31.58970000     -69.80660000
