40
Properties=species:S:1:pos:R:3 #=T CELL(abcABC):=T 1.889726e+02=T 90.00000=T Traj:=T positionsangstrom=T Step:=T 0=T Bead:=T pbc="F F F"
C      -48.27190000     -31.84300000     -73.75230000
C      -47.98410000     -31.12860000     -72.51190000
C      -48.27030000     -31.79750000     -71.30420000
C      -48.56050000     -33.17960000     -71.25810000
C      -48.75380000     -33.86260000     -72.50130000
C      -48.63030000     -33.14920000     -73.71600000
H      -48.13560000     -31.20420000     -74.70380000
H      -48.02620000     -31.37510000     -70.34150000
H      -49.13670000     -34.92650000     -72.43240000
H      -48.81430000     -33.77130000     -74.57140000
C      -48.77920000     -33.86560000     -69.88840000
H      -49.80680000     -33.92650000     -69.59030000
H      -48.42280000     -33.16200000     -69.07910000
C      -47.28770000     -29.81070000     -72.56170000
H      -47.00360000     -29.50450000     -73.55220000
H      -47.98380000     -29.08480000     -72.00940000
S      -48.11300000     -35.56730000     -69.76520000
S      -45.72020000     -29.76130000     -71.49580000
C      -46.26090000     -35.53780000     -70.03070000
H      -45.75570000     -35.11090000     -69.11500000
H      -46.07240000     -36.59820000     -70.02000000
C      -44.98650000     -31.40160000     -71.68710000
H      -44.30380000     -31.25050000     -72.50260000
H      -45.76230000     -32.07110000     -72.02650000
C      -44.34810000     -31.77350000     -70.33430000
H      -43.95860000     -30.88500000     -69.91920000
H      -45.10550000     -32.11860000     -69.59760000
C      -45.77240000     -34.74310000     -71.26800000
H      -45.99860000     -33.72140000     -71.08680000
H      -46.41150000     -35.08680000     -72.07560000
C      -44.30480000     -34.98350000     -71.50990000
C      -43.77810000     -36.09070000     -72.11020000
C      -43.25600000     -34.07130000     -70.97310000
H      -44.40450000     -36.92320000     -72.34620000
C      -41.99940000     -34.62420000     -71.13930000
C      -43.15890000     -32.73950000     -70.48910000
C      -41.84370000     -32.35780000     -70.19620000
S      -42.01520000     -36.24420000     -71.87900000
S      -40.70460000     -33.69190000     -70.57000000
H      -41.46140000     -31.45280000     -69.80390000
