40
Properties=species:S:1:pos:R:3 #=T CELL(abcABC):=T 1.889726e+02=T 90.00000=T Traj:=T positionsangstrom=T Step:=T 0=T Bead:=T pbc="F F F"
C      -48.16300000     -32.11240000     -73.72790000
C      -47.78840000     -31.50630000     -72.53660000
C      -48.00280000     -32.05670000     -71.31170000
C      -48.70560000     -33.27050000     -71.22670000
C      -49.01290000     -33.96490000     -72.41190000
C      -48.74870000     -33.41390000     -73.69680000
H      -47.87050000     -31.67170000     -74.62240000
H      -47.67570000     -31.64490000     -70.38020000
H      -49.44800000     -34.95200000     -72.28990000
H      -49.09270000     -34.08380000     -74.51620000
C      -48.89480000     -33.90580000     -69.89420000
H      -49.99760000     -34.01870000     -69.78830000
H      -48.55030000     -33.29050000     -69.09060000
C      -47.09100000     -30.16840000     -72.84680000
H      -46.54990000     -30.43400000     -73.80950000
H      -47.80870000     -29.37640000     -72.86680000
S      -48.09230000     -35.56840000     -69.73780000
S      -45.80450000     -29.59010000     -71.65910000
C      -46.31870000     -35.15030000     -69.91370000
H      -46.12000000     -34.20830000     -69.48010000
H      -45.77700000     -35.80820000     -69.18990000
C      -44.55470000     -30.90500000     -71.66950000
H      -43.61910000     -30.32870000     -71.54710000
H      -44.43020000     -31.57310000     -72.52750000
C      -44.66410000     -31.82630000     -70.45520000
H      -44.65030000     -31.29520000     -69.49690000
H      -45.44510000     -32.54940000     -70.46640000
C      -45.76060000     -35.24050000     -71.35060000
H      -46.19460000     -34.45880000     -71.94240000
H      -46.19020000     -36.09120000     -71.83270000
C      -44.20290000     -35.15870000     -71.41860000
C      -43.59150000     -36.25860000     -71.93610000
C      -43.29110000     -34.15530000     -70.94880000
H      -44.01770000     -37.14980000     -72.37340000
C      -41.98300000     -34.56080000     -71.05540000
C      -43.42070000     -32.75530000     -70.43100000
C      -42.16980000     -32.20480000     -70.16280000
S      -41.78290000     -36.12770000     -71.81920000
S      -40.86740000     -33.29850000     -70.54200000
H      -41.90820000     -31.15170000     -69.84970000
