40
Properties=species:S:1:pos:R:3 #=T CELL(abcABC):=T 1.889726e+02=T 90.00000=T Traj:=T positionsangstrom=T Step:=T 0=T Bead:=T pbc="F F F"
C      -45.01270000     -31.19040000     -74.57970000
C      -44.76120000     -30.72610000     -73.25190000
C      -45.86790000     -30.52490000     -72.44500000
C      -47.19760000     -30.79430000     -72.76380000
C      -47.46420000     -31.18910000     -74.05470000
C      -46.35370000     -31.26390000     -75.00330000
H      -44.37790000     -31.53580000     -75.39170000
H      -45.69090000     -30.09830000     -71.49900000
H      -48.42560000     -31.19430000     -74.48980000
H      -46.54120000     -31.54900000     -76.08480000
C      -48.29300000     -30.67090000     -71.75500000
H      -49.29780000     -31.09720000     -72.09260000
H      -48.60560000     -29.63550000     -71.48440000
C      -43.36340000     -30.53620000     -72.67670000
H      -42.85550000     -30.07750000     -73.44550000
H      -43.46460000     -29.91090000     -71.75640000
S      -47.77950000     -31.35190000     -70.09390000
S      -42.58750000     -32.13880000     -72.27860000
C      -47.59430000     -33.18450000     -70.54270000
H      -48.55720000     -33.54790000     -70.98630000
H      -46.80980000     -33.20220000     -71.35760000
C      -42.86680000     -32.11540000     -70.43300000
H      -42.83760000     -31.09970000     -70.06480000
H      -41.97440000     -32.53390000     -70.01810000
C      -44.07980000     -32.83540000     -69.99360000
H      -44.44600000     -32.63690000     -68.96470000
H      -44.92160000     -32.49970000     -70.62300000
C      -47.19040000     -33.91040000     -69.22950000
H      -48.03040000     -34.10840000     -68.52540000
H      -46.57340000     -33.16030000     -68.72760000
C      -46.36980000     -35.12630000     -69.60580000
C      -47.04320000     -36.33510000     -69.63310000
C      -44.98940000     -35.23180000     -70.07290000
H      -48.04650000     -36.42080000     -69.51010000
C      -44.70910000     -36.52950000     -70.42050000
C      -43.88140000     -34.32060000     -70.23680000
C      -42.71070000     -34.92300000     -70.64450000
S      -46.02940000     -37.64110000     -70.33630000
S      -43.01040000     -36.63370000     -70.92850000
H      -41.74720000     -34.46640000     -70.74130000
