40
Properties=species:S:1:pos:R:3 #=T CELL(abcABC):=T 1.889726e+02=T 90.00000=T Traj:=T positionsangstrom=T Step:=T 0=T Bead:=T pbc="F F F"
C      -47.76580000     -32.42190000     -74.09680000
C      -47.70550000     -31.63930000     -72.90810000
C      -48.05910000     -32.22510000     -71.73540000
C      -48.58520000     -33.46230000     -71.66230000
C      -48.71550000     -34.27510000     -72.80700000
C      -48.26480000     -33.70980000     -74.03190000
H      -47.53940000     -31.88150000     -75.04750000
H      -47.89550000     -31.53490000     -70.85720000
H      -49.10560000     -35.26640000     -72.80520000
H      -48.45490000     -34.28060000     -74.96970000
C      -49.00750000     -34.01180000     -70.34850000
H      -50.05010000     -34.22920000     -70.21160000
H      -48.94540000     -33.18660000     -69.58850000
C      -47.07980000     -30.29600000     -73.00240000
H      -46.28250000     -30.27030000     -73.81750000
H      -47.89720000     -29.55700000     -73.32400000
S      -47.96400000     -35.42740000     -69.81070000
S      -46.44230000     -29.65030000     -71.43020000
C      -46.26390000     -34.78130000     -69.82140000
H      -46.22690000     -33.70920000     -69.66590000
H      -45.76110000     -35.26590000     -68.92640000
C      -44.83740000     -30.46730000     -71.20210000
H      -44.26150000     -30.04350000     -70.35770000
H      -44.08060000     -30.09960000     -71.98090000
C      -44.84170000     -31.97620000     -71.11650000
H      -45.44030000     -32.16340000     -70.17440000
H      -45.29510000     -32.48420000     -71.99000000
C      -45.56870000     -35.22520000     -71.16340000
H      -45.97610000     -34.47020000     -71.90830000
H      -45.89890000     -36.20520000     -71.40310000
C      -44.13230000     -35.22170000     -71.09790000
C      -43.42170000     -36.41650000     -71.10450000
C      -43.27990000     -34.09440000     -70.92780000
H      -43.82230000     -37.42310000     -71.12250000
C      -41.96990000     -34.50910000     -70.71690000
C      -43.45300000     -32.57560000     -70.92080000
C      -42.23280000     -31.96220000     -70.77690000
S      -41.70900000     -36.17970000     -70.74790000
S      -40.88980000     -33.11470000     -70.76370000
H      -41.90590000     -30.96160000     -70.76270000
