40
Properties=species:S:1:pos:R:3 #=T CELL(abcABC):=T 1.889726e+02=T 90.00000=T Traj:=T positionsangstrom=T Step:=T 0=T Bead:=T pbc="F F F"
C      -47.61490000     -32.49530000     -74.09720000
C      -47.68120000     -31.67910000     -72.94970000
C      -48.15280000     -32.28990000     -71.78580000
C      -48.57180000     -33.58940000     -71.78640000
C      -48.48550000     -34.36590000     -72.93380000
C      -47.90200000     -33.85260000     -74.10050000
H      -47.18410000     -31.91410000     -74.96340000
H      -48.22970000     -31.76870000     -70.78690000
H      -48.75300000     -35.39890000     -72.89300000
H      -47.76120000     -34.63100000     -74.87310000
C      -49.05500000     -34.20410000     -70.47580000
H      -50.09450000     -34.39010000     -70.48960000
H      -48.80550000     -33.54860000     -69.66140000
C      -47.40110000     -30.23700000     -73.07240000
H      -46.81620000     -30.06480000     -73.98150000
H      -48.22940000     -29.57640000     -73.09330000
S      -48.22430000     -35.77870000     -69.90150000
S      -46.34200000     -29.57900000     -71.73680000
C      -46.46310000     -35.23860000     -69.72560000
H      -46.43720000     -34.27750000     -69.16950000
H      -45.98880000     -36.03690000     -69.02940000
C      -44.66000000     -30.40300000     -71.81350000
H      -44.05050000     -29.79610000     -71.13640000
H      -44.20930000     -30.35440000     -72.76890000
C      -44.68530000     -31.90040000     -71.48490000
H      -45.28020000     -32.01020000     -70.54020000
H      -45.26820000     -32.24970000     -72.28870000
C      -45.68690000     -35.06490000     -71.01400000
H      -45.91540000     -34.08410000     -71.52340000
H      -46.06480000     -35.87280000     -71.67230000
C      -44.18720000     -35.13460000     -70.78310000
C      -43.50990000     -36.14050000     -70.16460000
C      -43.23050000     -34.02640000     -70.99090000
H      -43.89890000     -37.20280000     -70.00470000
C      -41.88470000     -34.34610000     -70.64180000
C      -43.34470000     -32.63980000     -71.37840000
C      -42.17970000     -31.97950000     -71.36040000
S      -41.81700000     -35.87920000     -69.82630000
S      -40.79750000     -32.98240000     -70.81850000
H      -42.07470000     -30.94050000     -71.64050000
