40
Properties=species:S:1:pos:R:3 #=T CELL(abcABC):=T 1.889726e+02=T 90.00000=T Traj:=T positionsangstrom=T Step:=T 0=T Bead:=T pbc="F F F"
C      -43.41660000     -36.60830000     -72.49470000
C      -42.73380000     -35.34180000     -72.65970000
C      -42.43000000     -34.67970000     -71.52550000
C      -42.77610000     -35.14830000     -70.23360000
C      -43.31900000     -36.32700000     -70.06290000
C      -43.73080000     -37.12730000     -71.20990000
H      -43.62000000     -37.23740000     -73.33820000
H      -41.89250000     -33.74310000     -71.55420000
H      -43.49820000     -36.69720000     -68.99710000
H      -44.10680000     -38.12210000     -71.07460000
C      -42.37570000     -34.29700000     -69.12060000
H      -42.18270000     -33.34370000     -69.57940000
H      -41.52030000     -34.59520000     -68.46940000
C      -42.60470000     -34.80610000     -74.04520000
H      -41.61470000     -34.32050000     -74.28820000
H      -42.73080000     -35.62860000     -74.71420000
S      -43.68680000     -34.01410000     -67.85730000
S      -44.01140000     -33.68230000     -74.60570000
C      -45.21760000     -33.56710000     -68.86970000
H      -45.19150000     -34.17060000     -69.81030000
H      -46.03510000     -33.99000000     -68.28560000
C      -43.73850000     -32.11540000     -73.44720000
H      -43.92250000     -31.29760000     -74.09650000
H      -42.70480000     -32.10330000     -73.19480000
C      -44.65800000     -32.26380000     -72.23410000
H      -44.61160000     -33.15250000     -71.76050000
H      -44.31990000     -31.68090000     -71.44420000
C      -45.34410000     -32.10460000     -69.14890000
H      -44.64680000     -31.74580000     -69.82360000
H      -45.33190000     -31.43390000     -68.22050000
C      -46.77360000     -31.86400000     -69.76580000
C      -47.96180000     -31.81150000     -69.00080000
C      -47.01740000     -31.88500000     -71.18330000
H      -47.98060000     -31.74650000     -67.92840000
C      -48.35780000     -31.76920000     -71.46350000
C      -46.18700000     -32.12040000     -72.39360000
C      -46.95250000     -32.33150000     -73.48990000
S      -49.32950000     -31.53640000     -70.05460000
S      -48.64090000     -32.09940000     -73.13640000
H      -46.73850000     -32.54620000     -74.53450000
