40
Properties=species:S:1:pos:R:3 #=T CELL(abcABC):=T 1.889726e+02=T 90.00000=T Traj:=T positionsangstrom=T Step:=T 0=T Bead:=T pbc="F F F"
C      -47.60450000     -32.79380000     -74.29360000
C      -47.71960000     -31.96490000     -73.21010000
C      -48.13450000     -32.46560000     -71.98970000
C      -48.56300000     -33.81310000     -71.83130000
C      -48.52830000     -34.55610000     -72.98730000
C      -48.03240000     -34.13560000     -74.22490000
H      -47.30610000     -32.45850000     -75.30510000
H      -48.08640000     -31.78050000     -71.20410000
H      -49.02160000     -35.51460000     -72.98140000
H      -48.07560000     -34.70800000     -75.13870000
C      -49.06290000     -34.31480000     -70.52630000
H      -50.08730000     -34.77150000     -70.58770000
H      -49.06270000     -33.46140000     -69.85860000
C      -47.34220000     -30.49290000     -73.43180000
H      -46.62250000     -30.48780000     -74.26760000
H      -48.16890000     -29.75320000     -73.69650000
S      -48.16410000     -35.76360000     -69.90970000
S      -46.41740000     -29.61700000     -72.11640000
C      -46.41720000     -35.23200000     -69.52940000
H      -46.47920000     -34.16890000     -69.20930000
H      -46.15080000     -35.75050000     -68.58190000
C      -44.80200000     -30.50800000     -72.12140000
H      -44.20860000     -29.84300000     -71.41640000
H      -44.25990000     -30.58840000     -73.14770000
C      -44.89550000     -31.94860000     -71.56650000
H      -45.57390000     -31.95060000     -70.65590000
H      -45.36050000     -32.50690000     -72.43880000
C      -45.44430000     -35.38250000     -70.71740000
H      -45.74800000     -34.72240000     -71.57580000
H      -45.49570000     -36.34100000     -71.23900000
C      -44.01710000     -35.08290000     -70.38680000
C      -43.23570000     -36.03250000     -69.67860000
C      -43.22570000     -33.91300000     -70.76470000
H      -43.53890000     -36.99470000     -69.42060000
C      -41.89250000     -34.04950000     -70.48910000
C      -43.54000000     -32.55040000     -71.18240000
C      -42.39040000     -31.79320000     -71.23210000
S      -41.53840000     -35.58160000     -69.65900000
S      -40.98740000     -32.64060000     -70.69030000
H      -42.34780000     -30.74420000     -71.57450000
