40
Properties=species:S:1:pos:R:3 #=T CELL(abcABC):=T 1.889726e+02=T 90.00000=T Traj:=T positionsangstrom=T Step:=T 0=T Bead:=T pbc="F F F"
C      -44.79070000     -33.22320000     -74.02360000
C      -43.56050000     -33.86670000     -73.66720000
C      -43.60460000     -35.09450000     -72.98940000
C      -44.84360000     -35.58850000     -72.52460000
C      -46.03660000     -34.88750000     -72.74100000
C      -46.02740000     -33.75930000     -73.57450000
H      -44.70780000     -32.34150000     -74.62030000
H      -42.74380000     -35.65980000     -72.72220000
H      -46.95820000     -35.20620000     -72.29490000
H      -46.98120000     -33.26550000     -73.86330000
C      -44.87250000     -36.85470000     -71.62050000
H      -43.91780000     -36.90920000     -71.12970000
H      -44.97540000     -37.73650000     -72.14700000
C      -42.22130000     -33.19430000     -74.02660000
H      -41.54850000     -33.91950000     -74.52020000
H      -42.29040000     -32.34200000     -74.73080000
S      -46.25160000     -36.94110000     -70.39240000
S      -41.38130000     -32.50060000     -72.48370000
C      -45.29520000     -36.01730000     -69.02970000
H      -45.90450000     -36.06610000     -68.09830000
H      -44.33490000     -36.55730000     -68.97160000
C      -42.72710000     -31.32450000     -71.86960000
H      -43.26800000     -31.08440000     -72.79080000
H      -42.14690000     -30.48600000     -71.55290000
C      -43.63930000     -31.96230000     -70.76680000
H      -43.59180000     -33.02220000     -70.93560000
H      -43.17270000     -31.85820000     -69.81230000
C      -45.03890000     -34.56430000     -69.27970000
H      -44.32670000     -34.39740000     -70.12390000
H      -44.45220000     -34.24480000     -68.35410000
C      -46.20450000     -33.59130000     -69.45200000
C      -47.44160000     -33.78560000     -68.93880000
C      -46.14120000     -32.25790000     -70.13540000
H      -47.82380000     -34.74160000     -68.55400000
C      -47.40850000     -31.73800000     -70.38910000
C      -45.14480000     -31.49350000     -70.81670000
C      -45.60550000     -30.41740000     -71.47370000
S      -48.65390000     -32.55890000     -69.43290000
S      -47.33120000     -30.22780000     -71.29480000
H      -45.05420000     -29.55000000     -71.88970000
