40
Properties=species:S:1:pos:R:3 #=T CELL(abcABC):=T 1.889726e+02=T 90.00000=T Traj:=T positionsangstrom=T Step:=T 0=T Bead:=T pbc="F F F"
C      -44.80390000     -33.09180000     -73.94340000
C      -43.61150000     -33.78450000     -73.58900000
C      -43.66420000     -35.00250000     -72.88000000
C      -44.87690000     -35.51000000     -72.44290000
C      -46.04990000     -34.82530000     -72.68940000
C      -45.99800000     -33.62490000     -73.43030000
H      -44.88050000     -32.10350000     -74.43420000
H      -42.74380000     -35.55820000     -72.57130000
H      -46.99480000     -35.16030000     -72.33360000
H      -46.91870000     -33.10140000     -73.58770000
C      -44.91420000     -36.80220000     -71.72870000
H      -43.92770000     -37.20790000     -71.32010000
H      -45.36430000     -37.57540000     -72.44000000
C      -42.26730000     -33.31300000     -74.00010000
H      -41.70460000     -34.26530000     -74.08270000
H      -42.32120000     -32.70220000     -74.88410000
S      -46.19940000     -36.89140000     -70.31330000
S      -41.40730000     -32.41010000     -72.71490000
C      -45.47730000     -36.02530000     -68.84450000
H      -46.27160000     -36.03670000     -68.11760000
H      -44.73530000     -36.56290000     -68.35280000
C      -42.81500000     -31.39080000     -71.95620000
H      -43.46370000     -31.12190000     -72.78070000
H      -42.38850000     -30.37410000     -71.64740000
C      -43.59940000     -31.97200000     -70.74640000
H      -43.43030000     -33.06480000     -70.71850000
H      -43.13530000     -31.57660000     -69.77190000
C      -45.06030000     -34.57620000     -69.09450000
H      -44.34890000     -34.58400000     -69.87050000
H      -44.57100000     -34.27200000     -68.17300000
C      -46.20030000     -33.61090000     -69.37640000
C      -47.49670000     -33.80410000     -69.04550000
C      -46.08240000     -32.35470000     -70.05060000
H      -47.92480000     -34.77510000     -68.69440000
C      -47.29800000     -31.73990000     -70.34830000
C      -45.05260000     -31.58690000     -70.76330000
C      -45.46940000     -30.57090000     -71.54140000
S      -48.66580000     -32.55350000     -69.56040000
S      -47.23820000     -30.36680000     -71.36510000
H      -44.90110000     -29.97730000     -72.30420000
