40
Properties=species:S:1:pos:R:3 #=T CELL(abcABC):=T 1.889726e+02=T 90.00000=T Traj:=T positionsangstrom=T Step:=T 0=T Bead:=T pbc="F F F"
C      -44.84040000     -33.15800000     -73.99230000
C      -43.66070000     -33.77500000     -73.53990000
C      -43.68430000     -34.95630000     -72.70620000
C      -44.96450000     -35.38310000     -72.28330000
C      -46.10580000     -34.64590000     -72.59560000
C      -46.05560000     -33.50350000     -73.41950000
H      -44.86270000     -32.38090000     -74.82860000
H      -42.73310000     -35.44860000     -72.39310000
H      -47.07070000     -34.95010000     -72.16760000
H      -46.87390000     -32.85620000     -73.65970000
C      -44.98790000     -36.67550000     -71.44380000
H      -44.04470000     -36.80180000     -70.99680000
H      -44.93980000     -37.44750000     -72.19440000
C      -42.32460000     -33.30200000     -74.04770000
H      -41.68390000     -34.05870000     -74.45320000
H      -42.43180000     -32.73920000     -74.98550000
S      -46.19730000     -37.00310000     -70.14480000
S      -41.36280000     -32.34170000     -72.82230000
C      -45.54240000     -36.04670000     -68.72280000
H      -46.40650000     -36.09250000     -68.01400000
H      -44.60630000     -36.52490000     -68.22400000
C      -42.70630000     -31.24890000     -72.12560000
H      -43.29630000     -30.92970000     -72.97330000
H      -42.22380000     -30.41130000     -71.68660000
C      -43.49840000     -31.99830000     -71.04880000
H      -43.39030000     -33.07410000     -71.13770000
H      -43.09310000     -31.71990000     -70.10580000
C      -45.12610000     -34.60560000     -68.99960000
H      -44.38320000     -34.58980000     -69.84160000
H      -44.58800000     -34.12750000     -68.16470000
C      -46.22940000     -33.69040000     -69.46180000
C      -47.53020000     -33.86800000     -69.07900000
C      -46.05280000     -32.53590000     -70.30420000
H      -47.85520000     -34.58590000     -68.37400000
C      -47.29890000     -31.83050000     -70.44770000
C      -45.00210000     -31.66690000     -70.89410000
C      -45.48240000     -30.49480000     -71.39100000
S      -48.65460000     -32.64120000     -69.72410000
S      -47.18220000     -30.35600000     -71.24550000
H      -44.92260000     -29.84700000     -72.04190000
