40
Properties=species:S:1:pos:R:3 #=T CELL(abcABC):=T 1.889726e+02=T 90.00000=T Traj:=T positionsangstrom=T Step:=T 0=T Bead:=T pbc="F F F"
C      -45.04660000     -33.39320000     -73.94710000
C      -43.80140000     -33.98120000     -73.70840000
C      -43.70290000     -35.15040000     -72.92890000
C      -44.88410000     -35.69680000     -72.36500000
C      -46.15910000     -35.12100000     -72.74310000
C      -46.21310000     -34.01910000     -73.51610000
H      -45.02050000     -32.45020000     -74.40540000
H      -42.71750000     -35.45980000     -72.67330000
H      -47.08900000     -35.50860000     -72.31700000
H      -47.24810000     -33.61900000     -73.81530000
C      -44.83930000     -36.86850000     -71.41890000
H      -43.83500000     -37.04970000     -71.05410000
H      -45.22020000     -37.76910000     -71.88500000
C      -42.56160000     -33.32580000     -74.16270000
H      -41.83390000     -34.07750000     -74.47770000
H      -42.78920000     -32.58380000     -74.93810000
S      -46.08580000     -36.82900000     -70.01050000
S      -41.58430000     -32.50680000     -72.78280000
C      -45.27470000     -35.80570000     -68.57410000
H      -45.94810000     -35.82000000     -67.70760000
H      -44.34430000     -36.29840000     -68.23180000
C      -42.81820000     -31.29320000     -72.10780000
H      -43.46250000     -31.02000000     -72.93110000
H      -42.33780000     -30.40900000     -71.76950000
C      -43.49850000     -31.97280000     -70.86980000
H      -43.55590000     -33.05280000     -71.14570000
H      -42.81750000     -31.81480000     -69.96830000
C      -45.00130000     -34.39150000     -68.91920000
H      -44.28370000     -34.33880000     -69.74390000
H      -44.53390000     -33.89510000     -68.03820000
C      -46.17400000     -33.47950000     -69.39230000
C      -47.53240000     -33.82760000     -69.26700000
C      -45.99220000     -32.22930000     -70.16950000
H      -47.91690000     -34.78380000     -68.91560000
C      -47.22920000     -31.68510000     -70.40260000
C      -44.88130000     -31.45160000     -70.64750000
C      -45.34720000     -30.26640000     -71.22480000
S      -48.62840000     -32.62040000     -70.02570000
S      -47.13990000     -30.14540000     -71.19010000
H      -44.74930000     -29.45340000     -71.57400000
