40
Properties=species:S:1:pos:R:3 #=T CELL(abcABC):=T 1.889726e+02=T 90.00000=T Traj:=T positionsangstrom=T Step:=T 0=T Bead:=T pbc="F F F"
C      -45.13390000     -33.56160000     -74.06020000
C      -43.86480000     -33.99560000     -73.64540000
C      -43.80500000     -35.01150000     -72.65790000
C      -44.98580000     -35.70890000     -72.28520000
C      -46.23180000     -35.24650000     -72.72680000
C      -46.28890000     -34.11630000     -73.59390000
H      -45.21240000     -32.74410000     -74.77560000
H      -42.82320000     -35.35360000     -72.33470000
H      -47.17910000     -35.63520000     -72.36660000
H      -47.26700000     -33.71170000     -73.77100000
C      -44.80950000     -36.92610000     -71.36540000
H      -43.76560000     -36.94880000     -71.06850000
H      -44.83300000     -37.85870000     -72.01180000
C      -42.57980000     -33.38400000     -74.04960000
H      -41.96520000     -34.07900000     -74.64790000
H      -42.81310000     -32.65650000     -74.79130000
S      -45.93250000     -36.96560000     -69.98770000
S      -41.59570000     -32.67860000     -72.71470000
C      -45.29080000     -35.77840000     -68.72000000
H      -46.06870000     -35.88020000     -67.94630000
H      -44.35510000     -36.16150000     -68.28570000
C      -42.71230000     -31.35900000     -72.15280000
H      -43.50320000     -31.26080000     -72.86190000
H      -42.13290000     -30.34890000     -72.08860000
C      -43.43320000     -31.77980000     -70.76600000
H      -43.39070000     -32.74430000     -70.43830000
H      -42.95110000     -31.28130000     -69.95420000
C      -45.00930000     -34.35350000     -69.07150000
H      -44.15930000     -34.36760000     -69.73400000
H      -44.57650000     -33.98470000     -68.07620000
C      -46.16750000     -33.47970000     -69.58020000
C      -47.49260000     -33.78880000     -69.45530000
C      -46.07400000     -32.15130000     -70.24510000
H      -47.80350000     -34.69830000     -68.90990000
C      -47.27860000     -31.57300000     -70.49260000
C      -44.89420000     -31.38620000     -70.71310000
C      -45.37500000     -30.20120000     -71.24670000
S      -48.63280000     -32.58140000     -69.97600000
S      -47.10580000     -29.94200000     -71.15160000
H      -44.76260000     -29.45910000     -71.70600000
