40
Properties=species:S:1:pos:R:3 #=T CELL(abcABC):=T 1.889726e+02=T 90.00000=T Traj:=T positionsangstrom=T Step:=T 0=T Bead:=T pbc="F F F"
C      -45.27490000     -33.77410000     -73.94510000
C      -44.03870000     -34.16270000     -73.43240000
C      -43.90950000     -35.24850000     -72.56030000
C      -45.04690000     -35.98750000     -72.19720000
C      -46.30210000     -35.60290000     -72.75030000
C      -46.39860000     -34.51130000     -73.59010000
H      -45.42080000     -32.96390000     -74.65680000
H      -42.98310000     -35.72140000     -72.23710000
H      -47.13120000     -36.23320000     -72.43600000
H      -47.27420000     -34.26900000     -74.10360000
C      -44.96170000     -37.20020000     -71.25200000
H      -43.88950000     -37.35210000     -71.00340000
H      -45.39610000     -38.03320000     -71.71300000
C      -42.68270000     -33.48200000     -73.98390000
H      -42.02910000     -34.24730000     -74.24520000
H      -42.76100000     -32.78780000     -74.81080000
S      -46.05410000     -36.83610000     -69.84940000
S      -41.64320000     -32.51710000     -72.76170000
C      -45.23820000     -35.61200000     -68.66050000
H      -46.07550000     -35.52720000     -67.91630000
H      -44.39850000     -36.10630000     -68.09010000
C      -42.66200000     -31.15050000     -72.05740000
H      -43.39120000     -30.87730000     -72.88860000
H      -42.06840000     -30.31210000     -71.87620000
C      -43.39180000     -31.64260000     -70.81050000
H      -43.43190000     -32.70360000     -70.95730000
H      -43.00320000     -31.42550000     -69.87890000
C      -44.79100000     -34.31700000     -69.31430000
H      -44.26230000     -34.43290000     -70.28210000
H      -44.09070000     -33.81790000     -68.63510000
C      -46.03560000     -33.40120000     -69.74440000
C      -47.34350000     -33.73850000     -69.52360000
C      -45.89760000     -32.07040000     -70.33090000
H      -47.79160000     -34.65350000     -69.20860000
C      -47.15870000     -31.52030000     -70.57740000
C      -44.84920000     -31.21150000     -70.72720000
C      -45.33300000     -29.96010000     -71.05000000
S      -48.49890000     -32.57110000     -70.14810000
S      -47.09590000     -29.90060000     -71.17230000
H      -44.68560000     -29.17460000     -71.41580000
