40
Properties=species:S:1:pos:R:3 #=T CELL(abcABC):=T 1.889726e+02=T 90.00000=T Traj:=T positionsangstrom=T Step:=T 0=T Bead:=T pbc="F F F"
C      -45.24930000     -33.64550000     -73.77420000
C      -43.92010000     -34.17350000     -73.44300000
C      -43.89470000     -35.26340000     -72.59100000
C      -45.01140000     -36.05320000     -72.24280000
C      -46.25770000     -35.72850000     -72.86740000
C      -46.32030000     -34.51100000     -73.62080000
H      -45.30880000     -32.70910000     -74.28030000
H      -42.98450000     -35.53050000     -72.06780000
H      -47.16820000     -36.25360000     -72.70030000
H      -47.35780000     -34.20650000     -73.97430000
C      -44.91950000     -37.12910000     -71.24300000
H      -43.86900000     -37.23970000     -70.95870000
H      -45.15050000     -38.17200000     -71.66060000
C      -42.75200000     -33.37750000     -73.92950000
H      -42.07870000     -34.07340000     -74.56560000
H      -43.13300000     -32.65220000     -74.71940000
S      -46.03530000     -36.83590000     -69.76420000
S      -41.64720000     -32.63620000     -72.67830000
C      -45.07310000     -35.71530000     -68.68350000
H      -45.49920000     -35.54920000     -67.76430000
H      -44.09330000     -36.11970000     -68.48610000
C      -42.77750000     -31.30950000     -72.10030000
H      -43.56470000     -31.01180000     -72.84290000
H      -42.11170000     -30.47980000     -72.03150000
C      -43.43400000     -31.47680000     -70.71540000
H      -43.22080000     -32.48820000     -70.18830000
H      -42.86220000     -30.76830000     -70.14860000
C      -44.86110000     -34.29290000     -69.33360000
H      -44.24700000     -34.54640000     -70.19360000
H      -44.24460000     -33.74740000     -68.61620000
C      -46.10260000     -33.45670000     -69.75520000
C      -47.37650000     -33.80660000     -69.61010000
C      -45.96920000     -32.05280000     -70.32140000
H      -47.80250000     -34.71520000     -69.22000000
C      -47.22850000     -31.40050000     -70.52640000
C      -44.88820000     -31.24080000     -70.74430000
C      -45.31730000     -30.04310000     -71.22640000
S      -48.55760000     -32.56610000     -70.24340000
S      -47.06050000     -29.79040000     -71.17290000
H      -44.67360000     -29.26990000     -71.62160000
