40
Properties=species:S:1:pos:R:3 #=T CELL(abcABC):=T 1.889726e+02=T 90.00000=T Traj:=T positionsangstrom=T Step:=T 0=T Bead:=T pbc="F F F"
C      -45.08920000     -33.67360000     -73.97790000
C      -43.83570000     -34.19950000     -73.62220000
C      -43.84580000     -35.34000000     -72.77830000
C      -45.05470000     -35.89550000     -72.24370000
C      -46.26780000     -35.48050000     -72.76060000
C      -46.30300000     -34.31150000     -73.51970000
H      -45.06050000     -32.79100000     -74.68830000
H      -42.87550000     -35.70580000     -72.53680000
H      -47.21240000     -35.98520000     -72.50370000
H      -47.19730000     -33.82640000     -73.81840000
C      -44.99010000     -37.05590000     -71.23790000
H      -43.87880000     -37.28780000     -71.08680000
H      -45.48170000     -37.88790000     -71.69110000
C      -42.49960000     -33.52270000     -73.92710000
H      -41.65330000     -34.09060000     -74.33110000
H      -42.76800000     -32.62730000     -74.51020000
S      -45.87640000     -36.90410000     -69.55010000
S      -41.78000000     -32.90790000     -72.31320000
C      -45.15540000     -35.36060000     -68.69340000
H      -45.94770000     -34.99790000     -67.95490000
H      -44.35780000     -35.64570000     -68.07900000
C      -42.64880000     -31.29340000     -72.07030000
H      -43.26640000     -31.23110000     -72.87190000
H      -41.93400000     -30.44440000     -72.26070000
C      -43.46230000     -31.22200000     -70.67020000
H      -43.16060000     -32.11710000     -70.24190000
H      -43.16350000     -30.34800000     -70.11350000
C      -44.80560000     -34.16420000     -69.47030000
H      -44.16820000     -34.36780000     -70.29370000
H      -44.21360000     -33.55970000     -68.80910000
C      -46.04550000     -33.35940000     -69.83140000
C      -47.35740000     -33.75730000     -69.64250000
C      -45.95370000     -32.08140000     -70.43410000
H      -47.69950000     -34.73150000     -69.34600000
C      -47.20330000     -31.58230000     -70.73870000
C      -44.89890000     -31.11990000     -70.83020000
C      -45.50500000     -29.97620000     -71.35020000
S      -48.52760000     -32.61490000     -70.26110000
S      -47.28870000     -29.96860000     -71.30510000
H      -44.99590000     -29.11450000     -71.80170000
