40
Properties=species:S:1:pos:R:3 #=T CELL(abcABC):=T 1.889726e+02=T 90.00000=T Traj:=T positionsangstrom=T Step:=T 0=T Bead:=T pbc="F F F"
C      -45.07520000     -33.72570000     -73.89630000
C      -43.82430000     -34.29590000     -73.43790000
C      -43.93300000     -35.35950000     -72.51110000
C      -45.18630000     -35.90170000     -72.19590000
C      -46.35750000     -35.36000000     -72.61120000
C      -46.31560000     -34.26430000     -73.48180000
H      -45.05650000     -32.83250000     -74.51780000
H      -43.02900000     -35.73720000     -72.00690000
H      -47.35800000     -35.74410000     -72.21330000
H      -47.17800000     -33.67380000     -73.71340000
C      -45.13710000     -37.08720000     -71.26560000
H      -44.17940000     -37.51640000     -71.04450000
H      -45.71450000     -37.89670000     -71.72470000
C      -42.44000000     -33.71840000     -73.73130000
H      -41.73890000     -34.48260000     -74.02650000
H      -42.48980000     -33.01130000     -74.61800000
S      -45.94870000     -36.75070000     -69.64680000
S      -41.74320000     -32.86930000     -72.27400000
C      -44.76980000     -35.46970000     -68.83550000
H      -45.13280000     -35.52080000     -67.83690000
H      -43.69690000     -35.81740000     -68.81260000
C      -42.85380000     -31.38050000     -72.11840000
H      -43.58070000     -31.53210000     -72.95230000
H      -42.20070000     -30.53460000     -72.35300000
C      -43.45700000     -31.26030000     -70.69680000
H      -43.22120000     -31.98320000     -70.00830000
H      -42.93550000     -30.36980000     -70.16320000
C      -44.69060000     -34.02300000     -69.34260000
H      -43.96730000     -33.90440000     -70.17210000
H      -44.31170000     -33.41300000     -68.47640000
C      -46.01550000     -33.35440000     -69.87310000
C      -47.26990000     -33.89420000     -69.68280000
C      -46.05200000     -32.00900000     -70.39060000
H      -47.54130000     -34.86620000     -69.32410000
C      -47.26760000     -31.53050000     -70.80060000
C      -44.94050000     -31.05280000     -70.74840000
C      -45.47330000     -29.93980000     -71.36920000
S      -48.51130000     -32.71100000     -70.28630000
S      -47.24040000     -29.94140000     -71.56110000
H      -44.99280000     -29.08540000     -71.84730000
