40
Properties=species:S:1:pos:R:3 #=T CELL(abcABC):=T 1.889726e+02=T 90.00000=T Traj:=T positionsangstrom=T Step:=T 0=T Bead:=T pbc="F F F"
C      -44.86780000     -33.59920000     -73.72900000
C      -43.67750000     -34.23350000     -73.28030000
C      -43.81820000     -35.30840000     -72.47720000
C      -45.13380000     -35.78800000     -72.03730000
C      -46.26410000     -35.12850000     -72.47380000
C      -46.15560000     -33.99430000     -73.29020000
H      -44.86210000     -32.77610000     -74.41940000
H      -42.90480000     -35.84100000     -72.16070000
H      -47.30350000     -35.45910000     -72.19930000
H      -46.97500000     -33.36920000     -73.63720000
C      -45.39820000     -37.04640000     -71.17430000
H      -44.42350000     -37.58660000     -71.04920000
H      -46.00770000     -37.79490000     -71.64920000
C      -42.38330000     -33.62760000     -73.70130000
H      -41.70390000     -34.32520000     -74.15670000
H      -42.53800000     -32.92910000     -74.47740000
S      -46.22850000     -36.86750000     -69.56260000
S      -41.42500000     -32.73610000     -72.44510000
C      -45.23770000     -35.54360000     -68.64520000
H      -45.94710000     -35.27260000     -67.83730000
H      -44.32040000     -35.92630000     -68.23610000
C      -42.53260000     -31.23410000     -72.18800000
H      -43.10980000     -31.01960000     -73.02720000
H      -41.82950000     -30.39050000     -71.99490000
C      -43.41410000     -31.44030000     -70.90440000
H      -43.12370000     -32.43130000     -70.40280000
H      -43.15320000     -30.56950000     -70.20470000
C      -44.89850000     -34.24720000     -69.36160000
H      -44.17270000     -34.47350000     -70.14430000
H      -44.32230000     -33.71990000     -68.54090000
C      -46.08230000     -33.42250000     -69.82990000
C      -47.36450000     -33.77200000     -69.50320000
C      -45.96480000     -32.15810000     -70.59780000
H      -47.65840000     -34.69800000     -69.08560000
C      -47.26000000     -31.59330000     -70.80470000
C      -44.97780000     -31.32440000     -71.11130000
C      -45.48070000     -30.22340000     -71.79810000
S      -48.57800000     -32.57380000     -70.09610000
S      -47.24260000     -30.06640000     -71.70550000
H      -44.75720000     -29.55840000     -72.25070000
