40
Properties=species:S:1:pos:R:3 #=T CELL(abcABC):=T 1.889726e+02=T 90.00000=T Traj:=T positionsangstrom=T Step:=T 0=T Bead:=T pbc="F F F"
C      -44.61720000     -33.83570000     -74.06870000
C      -43.53310000     -34.30360000     -73.40300000
C      -43.63590000     -35.27670000     -72.41710000
C      -44.89150000     -35.73360000     -72.03160000
C      -46.07010000     -35.06590000     -72.55090000
C      -45.87480000     -34.17990000     -73.63390000
H      -44.50260000     -33.07530000     -74.88560000
H      -42.72140000     -35.70020000     -71.99940000
H      -47.10790000     -35.31090000     -72.38520000
H      -46.72680000     -33.63250000     -74.11800000
C      -44.90390000     -36.72620000     -70.91380000
H      -44.07440000     -36.59220000     -70.24120000
H      -44.91850000     -37.71070000     -71.37990000
C      -42.10260000     -33.89840000     -73.77840000
H      -41.40540000     -34.72500000     -73.83070000
H      -42.10820000     -33.35460000     -74.73540000
S      -46.39260000     -36.61090000     -69.84490000
S      -41.29020000     -32.77190000     -72.54120000
C      -45.82670000     -35.56360000     -68.41580000
H      -46.66750000     -35.35230000     -67.73530000
H      -44.89380000     -36.05430000     -67.99470000
C      -42.68590000     -31.66820000     -72.03480000
H      -43.08940000     -31.41840000     -73.00980000
H      -42.26580000     -30.74590000     -71.71460000
C      -43.62900000     -32.26610000     -71.06310000
H      -43.79470000     -33.23420000     -71.36570000
H      -43.12000000     -32.49750000     -70.11140000
C      -45.39620000     -34.11420000     -68.84540000
H      -44.43270000     -34.11830000     -69.42850000
H      -45.17750000     -33.53350000     -67.93500000
C      -46.38520000     -33.27680000     -69.56280000
C      -47.70530000     -33.37330000     -69.27680000
C      -46.15340000     -32.17260000     -70.47330000
H      -48.00310000     -34.14940000     -68.55700000
C      -47.30010000     -31.47020000     -70.74030000
C      -45.02420000     -31.59610000     -71.05520000
C      -45.30950000     -30.51310000     -71.82410000
S      -48.70900000     -32.13990000     -69.93900000
S      -47.01240000     -30.11770000     -71.83630000
H      -44.74160000     -30.05120000     -72.59800000
