40
Properties=species:S:1:pos:R:3 #=T CELL(abcABC):=T 1.889726e+02=T 90.00000=T Traj:=T positionsangstrom=T Step:=T 0=T Bead:=T pbc="F F F"
C      -44.42180000     -33.93870000     -74.23590000
C      -43.36940000     -34.54630000     -73.44200000
C      -43.63490000     -35.45970000     -72.44220000
C      -44.94220000     -35.84750000     -72.15660000
C      -45.97310000     -35.25390000     -72.92110000
C      -45.71350000     -34.31590000     -73.92040000
H      -44.14950000     -33.34660000     -75.08540000
H      -42.81420000     -36.00030000     -71.94620000
H      -46.99540000     -35.46510000     -72.66230000
H      -46.54450000     -33.84970000     -74.37760000
C      -45.24190000     -36.93600000     -71.14710000
H      -44.29420000     -36.97780000     -70.55140000
H      -45.37440000     -37.96070000     -71.50430000
C      -41.96200000     -34.07750000     -73.56700000
H      -41.36140000     -34.95510000     -73.64700000
H      -41.81960000     -33.53270000     -74.51220000
S      -46.60250000     -36.51240000     -70.00340000
S      -41.38270000     -32.99720000     -72.22680000
C      -45.83050000     -35.57600000     -68.65650000
H      -46.65350000     -35.48300000     -67.88940000
H      -44.97260000     -36.17510000     -68.20050000
C      -42.69570000     -31.70410000     -72.19260000
H      -43.24630000     -31.72260000     -73.10050000
H      -42.24340000     -30.67250000     -72.09840000
C      -43.57330000     -32.07660000     -71.02560000
H      -43.59740000     -33.18910000     -71.12320000
H      -43.15370000     -31.92390000     -70.07030000
C      -45.39860000     -34.12750000     -68.92270000
H      -44.52690000     -34.23000000     -69.54740000
H      -44.99890000     -33.70360000     -67.96900000
C      -46.38010000     -33.19170000     -69.48870000
C      -47.71710000     -33.24480000     -69.13170000
C      -46.08060000     -32.06120000     -70.39180000
H      -48.26360000     -34.03750000     -68.61580000
C      -47.27550000     -31.30250000     -70.60100000
C      -44.93230000     -31.45550000     -71.05060000
C      -45.31160000     -30.35800000     -71.78970000
S      -48.66080000     -31.96120000     -69.83010000
S      -46.98340000     -29.95590000     -71.69180000
H      -44.61610000     -29.59520000     -72.30200000
