40
Properties=species:S:1:pos:R:3 #=T CELL(abcABC):=T 1.889726e+02=T 90.00000=T Traj:=T positionsangstrom=T Step:=T 0=T Bead:=T pbc="F F F"
C      -44.20930000     -34.10150000     -74.06380000
C      -43.30330000     -34.77570000     -73.26300000
C      -43.70190000     -35.67230000     -72.22290000
C      -45.02700000     -35.98220000     -72.11870000
C      -45.93640000     -35.32300000     -72.96630000
C      -45.54230000     -34.42410000     -73.92310000
H      -43.92360000     -33.42670000     -74.72670000
H      -42.89190000     -36.10300000     -71.64530000
H      -46.97390000     -35.58710000     -72.91740000
H      -46.24500000     -34.12560000     -74.67150000
C      -45.53900000     -37.02880000     -71.15430000
H      -44.71780000     -37.40390000     -70.48120000
H      -45.87020000     -37.94400000     -71.72220000
C      -41.85180000     -34.37960000     -73.39340000
H      -41.13000000     -35.09400000     -73.10560000
H      -41.62350000     -34.17890000     -74.39240000
S      -46.91630000     -36.41040000     -69.98940000
S      -41.26490000     -32.96040000     -72.28340000
C      -45.85810000     -35.59350000     -68.75990000
H      -46.38720000     -35.54850000     -67.81170000
H      -44.96220000     -36.19610000     -68.46060000
C      -42.61600000     -31.77720000     -72.16880000
H      -43.07380000     -31.71050000     -73.21010000
H      -42.26710000     -30.78700000     -71.91300000
C      -43.62280000     -32.12860000     -71.07300000
H      -43.68180000     -33.18740000     -71.14790000
H      -43.22370000     -31.94860000     -70.08300000
C      -45.40850000     -34.20630000     -69.25730000
H      -44.73300000     -34.46400000     -70.14700000
H      -44.67670000     -33.74580000     -68.56060000
C      -46.41890000     -33.21150000     -69.73070000
C      -47.72150000     -33.21720000     -69.33730000
C      -46.10860000     -32.03820000     -70.50490000
H      -48.11360000     -33.88180000     -68.59040000
C      -47.21700000     -31.19350000     -70.66060000
C      -44.96510000     -31.45720000     -71.12580000
C      -45.19530000     -30.23100000     -71.75650000
S      -48.61570000     -31.80190000     -69.83870000
S      -46.92740000     -29.71320000     -71.46770000
H      -44.62410000     -29.58650000     -72.38460000
