40
Properties=species:S:1:pos:R:3 #=T CELL(abcABC):=T 1.889726e+02=T 90.00000=T Traj:=T positionsangstrom=T Step:=T 0=T Bead:=T pbc="F F F"
C      -44.46740000     -33.84290000     -73.71520000
C      -43.40580000     -34.61990000     -73.18070000
C      -43.77830000     -35.76270000     -72.39370000
C      -45.11920000     -36.02780000     -72.09630000
C      -46.09890000     -35.18830000     -72.59670000
C      -45.80740000     -34.09240000     -73.46220000
H      -44.07690000     -32.92420000     -74.30710000
H      -42.99210000     -36.47380000     -72.18330000
H      -47.11930000     -35.23030000     -72.21730000
H      -46.57990000     -33.32290000     -73.69940000
C      -45.55180000     -37.10530000     -71.11380000
H      -44.62030000     -37.35170000     -70.62370000
H      -45.91550000     -38.08950000     -71.46590000
C      -41.95930000     -34.36750000     -73.41050000
H      -41.36770000     -35.25150000     -72.93640000
H      -41.65240000     -34.31120000     -74.43900000
S      -46.90920000     -36.60070000     -69.97050000
S      -41.18680000     -32.93850000     -72.54970000
C      -46.01000000     -35.55920000     -68.77340000
H      -46.57420000     -35.35270000     -67.85430000
H      -45.17650000     -36.18700000     -68.34040000
C      -42.62060000     -31.76740000     -72.17890000
H      -43.36110000     -31.68510000     -73.05810000
H      -42.14800000     -30.83280000     -72.16720000
C      -43.48250000     -32.12230000     -70.96540000
H      -43.63470000     -33.26870000     -70.99610000
H      -42.94470000     -31.96150000     -69.97400000
C      -45.42050000     -34.31500000     -69.38270000
H      -44.73290000     -34.55200000     -70.19550000
H      -44.66320000     -33.96140000     -68.68230000
C      -46.39260000     -33.26660000     -69.78370000
C      -47.75340000     -33.31200000     -69.48380000
C      -46.01540000     -32.06040000     -70.49170000
H      -48.21020000     -34.17880000     -68.94890000
C      -47.12420000     -31.21290000     -70.68940000
C      -44.82710000     -31.42110000     -70.97650000
C      -45.05480000     -30.16620000     -71.47550000
S      -48.64280000     -31.87420000     -70.10380000
S      -46.71760000     -29.68110000     -71.50680000
H      -44.17130000     -29.67590000     -71.94620000
