40
Properties=species:S:1:pos:R:3 #=T CELL(abcABC):=T 1.889726e+02=T 90.00000=T Traj:=T positionsangstrom=T Step:=T 0=T Bead:=T pbc="F F F"
C      -44.58720000     -33.59430000     -73.89260000
C      -43.57770000     -34.41430000     -73.35810000
C      -43.91000000     -35.47300000     -72.51080000
C      -45.25810000     -35.69720000     -72.18280000
C      -46.23240000     -34.80200000     -72.64210000
C      -45.94230000     -33.80280000     -73.50740000
H      -44.36100000     -32.78790000     -74.56350000
H      -43.23460000     -36.18850000     -72.08570000
H      -47.25650000     -34.99470000     -72.37100000
H      -46.61480000     -33.04870000     -73.89650000
C      -45.59900000     -36.77780000     -71.16970000
H      -44.72180000     -37.11960000     -70.56920000
H      -45.85200000     -37.67670000     -71.82070000
C      -42.12250000     -34.21470000     -73.66580000
H      -41.57210000     -35.09950000     -73.64230000
H      -42.08130000     -33.82430000     -74.70780000
S      -46.85370000     -36.70330000     -69.87100000
S      -41.22380000     -33.04980000     -72.48870000
C      -46.02030000     -35.59960000     -68.54070000
H      -46.76110000     -35.45550000     -67.72180000
H      -45.11660000     -36.16960000     -68.15150000
C      -42.42900000     -31.74370000     -71.99030000
H      -42.78960000     -31.41840000     -72.90190000
H      -41.71830000     -30.94550000     -71.56970000
C      -43.38940000     -32.18810000     -70.80910000
H      -43.44880000     -33.27680000     -70.91320000
H      -42.82870000     -32.06690000     -69.87700000
C      -45.39610000     -34.26690000     -69.10900000
H      -44.75330000     -34.55760000     -69.93500000
H      -44.82750000     -33.72740000     -68.33630000
C      -46.37620000     -33.32150000     -69.66010000
C      -47.76970000     -33.44720000     -69.64270000
C      -45.98230000     -32.13760000     -70.37210000
H      -48.35330000     -34.20470000     -69.07990000
C      -47.09200000     -31.36670000     -70.74730000
C      -44.70190000     -31.56500000     -70.78650000
C      -44.87990000     -30.35050000     -71.32520000
S      -48.62500000     -32.09020000     -70.36200000
S      -46.59620000     -29.86760000     -71.50870000
H      -44.17740000     -29.68460000     -71.79370000
