40
Properties=species:S:1:pos:R:3 #=T CELL(abcABC):=T 1.889726e+02=T 90.00000=T Traj:=T positionsangstrom=T Step:=T 0=T Bead:=T pbc="F F F"
C      -44.78370000     -33.45710000     -73.88770000
C      -43.67870000     -34.28210000     -73.43410000
C      -43.99190000     -35.30380000     -72.52670000
C      -45.31980000     -35.55550000     -72.18960000
C      -46.35980000     -34.74320000     -72.63600000
C      -46.06930000     -33.66360000     -73.44930000
H      -44.51450000     -32.54960000     -74.36120000
H      -43.21950000     -35.87610000     -72.01800000
H      -47.36620000     -34.95010000     -72.20760000
H      -46.88360000     -33.00660000     -73.69910000
C      -45.61880000     -36.75630000     -71.35130000
H      -44.75580000     -37.24820000     -70.96800000
H      -46.03230000     -37.48100000     -72.02700000
C      -42.24890000     -34.01910000     -73.73650000
H      -41.68630000     -34.91520000     -73.96830000
H      -42.19470000     -33.28490000     -74.64010000
S      -46.79840000     -36.63190000     -69.82680000
S      -41.25140000     -33.23360000     -72.43540000
C      -45.93220000     -35.66120000     -68.60450000
H      -46.68850000     -35.43820000     -67.86350000
H      -45.27090000     -36.27010000     -68.06640000
C      -42.43420000     -31.89430000     -71.83420000
H      -43.08470000     -31.71970000     -72.69390000
H      -41.90190000     -30.94140000     -71.66180000
C      -43.34600000     -32.25030000     -70.68600000
H      -43.54620000     -33.33250000     -70.50710000
H      -42.86130000     -32.07760000     -69.68940000
C      -45.25490000     -34.35600000     -69.17210000
H      -44.47400000     -34.56960000     -69.84120000
H      -44.69370000     -33.84240000     -68.34840000
C      -46.26130000     -33.40190000     -69.72970000
C      -47.63450000     -33.56630000     -69.63250000
C      -45.94730000     -32.19070000     -70.48320000
H      -48.18440000     -34.40410000     -69.17160000
C      -47.03750000     -31.39300000     -70.79250000
C      -44.70850000     -31.57310000     -70.88610000
C      -44.86070000     -30.34940000     -71.38070000
S      -48.54370000     -32.15120000     -70.26150000
S      -46.58720000     -29.84680000     -71.53390000
H      -44.21670000     -29.60940000     -71.73860000
