40
Properties=species:S:1:pos:R:3 #=T CELL(abcABC):=T 1.889726e+02=T 90.00000=T Traj:=T positionsangstrom=T Step:=T 0=T Bead:=T pbc="F F F"
C      -44.97370000     -33.39700000     -73.89370000
C      -43.86920000     -34.13230000     -73.47240000
C      -44.05410000     -35.22800000     -72.62790000
C      -45.38890000     -35.61810000     -72.23510000
C      -46.49370000     -34.88400000     -72.71680000
C      -46.30050000     -33.74270000     -73.51390000
H      -44.78880000     -32.34930000     -74.28240000
H      -43.23750000     -35.87010000     -72.30550000
H      -47.48670000     -35.15380000     -72.36020000
H      -47.10940000     -33.04470000     -73.58320000
C      -45.55820000     -36.86360000     -71.38610000
H      -44.59960000     -37.13500000     -70.99650000
H      -45.93850000     -37.68960000     -71.96010000
C      -42.56470000     -33.44480000     -73.77230000
H      -41.90720000     -34.07210000     -74.51850000
H      -42.74390000     -32.41430000     -74.15060000
S      -46.86940000     -36.59490000     -70.16110000
S      -41.38330000     -33.21170000     -72.38650000
C      -45.99310000     -35.68910000     -68.61750000
H      -46.69490000     -35.45100000     -67.88790000
H      -45.34400000     -36.46240000     -68.23630000
C      -42.06910000     -31.84030000     -71.36790000
H      -42.18500000     -30.95640000     -72.07130000
H      -41.18210000     -31.57280000     -70.77480000
C      -43.25670000     -32.22240000     -70.50440000
H      -43.25250000     -33.32500000     -70.37690000
H      -43.08410000     -31.80220000     -69.48950000
C      -45.16510000     -34.45010000     -69.07240000
H      -44.47150000     -34.72170000     -69.93320000
H      -44.67910000     -34.05440000     -68.18460000
C      -46.13320000     -33.40080000     -69.62940000
C      -47.47150000     -33.45930000     -69.31150000
C      -45.86830000     -32.24560000     -70.41020000
H      -48.01490000     -34.16560000     -68.65560000
C      -46.96820000     -31.45610000     -70.76730000
C      -44.63620000     -31.66660000     -70.94870000
C      -44.80910000     -30.45990000     -71.56630000
S      -48.39060000     -32.09070000     -70.01780000
S      -46.53280000     -30.09020000     -71.76600000
H      -43.98560000     -29.90780000     -72.13360000
