40
Properties=species:S:1:pos:R:3 #=T CELL(abcABC):=T 1.889726e+02=T 90.00000=T Traj:=T positionsangstrom=T Step:=T 0=T Bead:=T pbc="F F F"
C      -45.12060000     -33.14690000     -73.88020000
C      -44.02160000     -33.83360000     -73.35270000
C      -44.15960000     -34.95900000     -72.54770000
C      -45.44950000     -35.47960000     -72.26280000
C      -46.54500000     -34.91160000     -72.93660000
C      -46.34790000     -33.79870000     -73.72210000
H      -45.10760000     -32.20390000     -74.47690000
H      -43.39170000     -35.30880000     -71.88140000
H      -47.52120000     -35.25100000     -72.81100000
H      -47.19820000     -33.47230000     -74.30500000
C      -45.65050000     -36.77150000     -71.51780000
H      -44.66450000     -37.07830000     -71.05860000
H      -45.93800000     -37.66110000     -72.11510000
C      -42.58300000     -33.34030000     -73.70900000
H      -42.16880000     -34.00390000     -74.45960000
H      -42.66160000     -32.36430000     -74.17530000
S      -46.89310000     -36.64220000     -70.09170000
S      -41.32230000     -33.16230000     -72.37100000
C      -45.77450000     -35.93830000     -68.82000000
H      -46.27980000     -35.84370000     -67.81190000
H      -44.87580000     -36.66890000     -68.63660000
C      -41.95210000     -31.90380000     -71.15280000
H      -42.15880000     -30.93890000     -71.54100000
H      -41.08570000     -31.77140000     -70.48450000
C      -43.19870000     -32.26820000     -70.30070000
H      -43.12720000     -33.31190000     -69.95750000
H      -43.06180000     -31.74760000     -69.35540000
C      -45.28510000     -34.47950000     -69.14840000
H      -44.59900000     -34.51140000     -69.92460000
H      -44.64040000     -34.21370000     -68.25590000
C      -46.23930000     -33.35110000     -69.44170000
C      -47.61000000     -33.32890000     -69.29340000
C      -45.82040000     -32.32850000     -70.30130000
H      -48.15570000     -34.01870000     -68.69660000
C      -46.87530000     -31.53940000     -70.77100000
C      -44.56360000     -31.87220000     -70.85380000
C      -44.77960000     -30.76780000     -71.67740000
S      -48.40560000     -31.96860000     -70.05630000
S      -46.40910000     -30.26390000     -71.85090000
H      -43.91270000     -30.36780000     -72.21480000
