40
Properties=species:S:1:pos:R:3 #=T CELL(abcABC):=T 1.889726e+02=T 90.00000=T Traj:=T positionsangstrom=T Step:=T 0=T Bead:=T pbc="F F F"
C      -45.41720000     -33.09330000     -73.95630000
C      -44.29910000     -33.56650000     -73.26720000
C      -44.41980000     -34.66620000     -72.44720000
C      -45.60860000     -35.42200000     -72.37720000
C      -46.76980000     -34.86280000     -72.99590000
C      -46.62840000     -33.73450000     -73.81020000
H      -45.40580000     -32.18910000     -74.51080000
H      -43.47000000     -35.08030000     -72.04720000
H      -47.78210000     -35.32810000     -72.90060000
H      -47.50360000     -33.46250000     -74.44360000
C      -45.69580000     -36.69750000     -71.56890000
H      -44.78980000     -37.10890000     -71.13220000
H      -46.07390000     -37.40560000     -72.31320000
C      -42.94290000     -32.86600000     -73.38470000
H      -42.52660000     -33.05330000     -74.39880000
H      -43.12370000     -31.81320000     -73.26730000
S      -46.91910000     -36.39250000     -70.23680000
S      -41.65650000     -33.30820000     -72.17660000
C      -45.78860000     -35.97950000     -68.77520000
H      -46.42210000     -36.22310000     -67.85670000
H      -44.94150000     -36.73440000     -68.74210000
C      -41.75710000     -32.07440000     -70.82870000
H      -41.76560000     -31.05220000     -71.27990000
H      -40.88960000     -32.26390000     -70.21620000
C      -42.98290000     -32.25300000     -69.94020000
H      -43.07970000     -33.33830000     -69.74470000
H      -42.78400000     -31.79530000     -68.93680000
C      -45.26260000     -34.57860000     -68.79750000
H      -44.23510000     -34.71210000     -69.17320000
H      -45.11810000     -34.13070000     -67.88020000
C      -46.10080000     -33.57020000     -69.59990000
C      -47.53570000     -33.63330000     -69.59010000
C      -45.60940000     -32.39280000     -70.26880000
H      -48.13730000     -34.30550000     -69.02620000
C      -46.66570000     -31.64480000     -70.80930000
C      -44.30020000     -31.71570000     -70.53890000
C      -44.42150000     -30.62280000     -71.37580000
S      -48.22890000     -32.30490000     -70.62910000
S      -46.10280000     -30.29400000     -71.91130000
H      -43.66710000     -30.07560000     -71.88970000
