40
Properties=species:S:1:pos:R:3 #=T CELL(abcABC):=T 1.889726e+02=T 90.00000=T Traj:=T positionsangstrom=T Step:=T 0=T Bead:=T pbc="F F F"
C      -45.46730000     -32.97960000     -73.63590000
C      -44.27500000     -33.53080000     -73.11140000
C      -44.36890000     -34.83540000     -72.54740000
C      -45.59200000     -35.43310000     -72.35010000
C      -46.76700000     -34.80900000     -72.80610000
C      -46.70080000     -33.58910000     -73.48340000
H      -45.47050000     -32.02360000     -74.27660000
H      -43.45520000     -35.28020000     -72.14230000
H      -47.78260000     -35.13250000     -72.49380000
H      -47.59600000     -33.09450000     -73.80040000
C      -45.70860000     -36.80190000     -71.63720000
H      -44.70060000     -37.10710000     -71.35330000
H      -45.98280000     -37.62220000     -72.27610000
C      -42.92520000     -32.93640000     -73.48160000
H      -42.54590000     -33.34830000     -74.39680000
H      -42.92790000     -31.82060000     -73.54990000
S      -46.95360000     -36.75580000     -70.24050000
S      -41.65330000     -33.42000000     -72.26240000
C      -46.20340000     -35.84020000     -68.82730000
H      -46.92470000     -35.51680000     -68.04830000
H      -45.56510000     -36.61050000     -68.31700000
C      -41.82990000     -32.20460000     -70.79610000
H      -41.91760000     -31.18130000     -71.21710000
H      -40.85020000     -32.27470000     -70.23180000
C      -43.03310000     -32.50280000     -69.90970000
H      -43.19550000     -33.61450000     -69.79310000
H      -42.82850000     -32.24800000     -68.83890000
C      -45.40260000     -34.59320000     -69.18400000
H      -44.57190000     -34.89350000     -69.82240000
H      -45.02170000     -34.17140000     -68.29270000
C      -46.16080000     -33.54430000     -69.92690000
C      -47.53340000     -33.58570000     -70.10310000
C      -45.59240000     -32.33340000     -70.37570000
H      -48.18980000     -34.41360000     -69.73500000
C      -46.55480000     -31.50270000     -70.94090000
C      -44.29030000     -31.76380000     -70.36630000
C      -44.30280000     -30.58480000     -71.03590000
S      -48.14470000     -32.13690000     -70.87350000
S      -45.92470000     -29.98560000     -71.51270000
H      -43.55120000     -29.80030000     -71.00260000
