40
Properties=species:S:1:pos:R:3 #=T CELL(abcABC):=T 1.889726e+02=T 90.00000=T Traj:=T positionsangstrom=T Step:=T 0=T Bead:=T pbc="F F F"
C      -45.03850000     -32.03830000     -75.08510000
C      -46.22600000     -32.41660000     -74.38910000
C      -46.43010000     -33.75050000     -74.14400000
C      -45.45920000     -34.73240000     -74.46770000
C      -44.29280000     -34.31760000     -75.12040000
C      -44.03900000     -32.95080000     -75.41920000
H      -44.96190000     -30.95680000     -75.32510000
H      -47.49100000     -33.89730000     -73.76220000
H      -43.54670000     -35.06490000     -75.50150000
H      -43.14060000     -32.66220000     -75.97410000
C      -45.53930000     -36.20660000     -74.16750000
H      -44.51210000     -36.49710000     -73.88170000
H      -45.97750000     -36.77630000     -75.02000000
C      -47.39310000     -31.38660000     -74.12190000
H      -47.47850000     -30.75220000     -74.96440000
H      -48.29850000     -31.94940000     -73.98320000
S      -46.67330000     -36.61090000     -72.66730000
S      -47.09670000     -30.26340000     -72.67530000
C      -45.46920000     -35.99920000     -71.26490000
H      -44.90680000     -36.93530000     -70.83810000
H      -44.68240000     -35.35750000     -71.65680000
C      -46.63160000     -31.36560000     -71.18840000
H      -47.41290000     -32.01280000     -70.90440000
H      -46.28310000     -30.62160000     -70.38320000
C      -45.33450000     -32.20990000     -71.41200000
H      -45.61740000     -33.25690000     -71.70670000
H      -44.78980000     -31.75220000     -72.25430000
C      -46.25950000     -35.24390000     -70.19340000
H      -46.85150000     -35.95650000     -69.63440000
H      -46.84620000     -34.57570000     -70.73410000
C      -45.38010000     -34.65380000     -69.14410000
C      -45.22620000     -35.22250000     -67.91710000
C      -44.73230000     -33.30340000     -69.13170000
H      -45.50060000     -36.28140000     -67.66170000
C      -44.04020000     -33.05710000     -67.94850000
C      -44.54630000     -32.25620000     -70.15120000
C      -43.72920000     -31.25880000     -69.71490000
S      -44.10390000     -34.37770000     -66.81370000
S      -43.06890000     -31.56220000     -68.03340000
H      -43.48430000     -30.35510000     -70.23790000
