40
Properties=species:S:1:pos:R:3 #=T CELL(abcABC):=T 1.889726e+02=T 90.00000=T Traj:=T positionsangstrom=T Step:=T 0=T Bead:=T pbc="F F F"
C      -44.48290000     -33.08110000     -73.58100000
C      -43.60000000     -33.77220000     -72.78770000
C      -43.99500000     -35.07660000     -72.27160000
C      -45.25720000     -35.59080000     -72.60150000
C      -46.16710000     -34.85910000     -73.36800000
C      -45.79610000     -33.58890000     -73.83700000
H      -44.29490000     -32.06660000     -74.02270000
H      -43.31290000     -35.72650000     -71.76440000
H      -47.12800000     -35.24170000     -73.54630000
H      -46.43190000     -32.98020000     -74.46320000
C      -45.57730000     -36.97280000     -72.08990000
H      -44.66700000     -37.42330000     -71.68070000
H      -45.99730000     -37.51490000     -72.97530000
C      -42.11830000     -33.23450000     -72.62840000
H      -41.49680000     -33.79190000     -73.33140000
H      -42.04200000     -32.12850000     -72.84580000
S      -47.11870000     -36.87430000     -70.98370000
S      -41.31700000     -33.49260000     -71.05180000
C      -46.68430000     -36.05400000     -69.35290000
H      -47.53840000     -35.87040000     -68.70680000
H      -46.02080000     -36.75440000     -68.87620000
C      -42.13590000     -32.12730000     -70.02240000
H      -42.09020000     -31.30420000     -70.67540000
H      -41.44260000     -31.91920000     -69.25380000
C      -43.52770000     -32.48120000     -69.51950000
H      -43.56170000     -33.56940000     -69.46080000
H      -43.47400000     -32.15030000     -68.44860000
C      -45.99710000     -34.65190000     -69.45560000
H      -45.05100000     -34.88030000     -69.96990000
H      -45.65120000     -34.33200000     -68.52750000
C      -46.71660000     -33.49210000     -70.16060000
C      -47.97130000     -33.40840000     -70.62470000
C      -45.98710000     -32.28380000     -70.57450000
H      -48.76730000     -34.14630000     -70.41370000
C      -46.72140000     -31.31000000     -71.26730000
C      -44.68670000     -31.75520000     -70.22120000
C      -44.60650000     -30.42160000     -70.58680000
S      -48.46350000     -31.88580000     -71.44180000
S      -46.04040000     -29.70560000     -71.26130000
H      -43.83530000     -29.74200000     -70.26740000
