40
Properties=species:S:1:pos:R:3 #=T CELL(abcABC):=T 1.889726e+02=T 90.00000=T Traj:=T positionsangstrom=T Step:=T 0=T Bead:=T pbc="F F F"
C      -45.56680000     -32.33340000     -75.02900000
C      -46.64770000     -32.78150000     -74.27470000
C      -46.73080000     -34.12260000     -73.96250000
C      -45.74930000     -35.08870000     -74.32370000
C      -44.68180000     -34.63360000     -75.06750000
C      -44.59720000     -33.23590000     -75.40340000
H      -45.49710000     -31.25100000     -75.19020000
H      -47.46880000     -34.48220000     -73.30110000
H      -44.03820000     -35.42310000     -75.38790000
H      -43.81120000     -32.76250000     -76.01570000
C      -45.85910000     -36.54000000     -73.98090000
H      -44.88420000     -37.01550000     -73.89110000
H      -46.42900000     -37.19020000     -74.70570000
C      -47.73380000     -31.77930000     -73.86430000
H      -48.26560000     -31.35750000     -74.71600000
H      -48.42360000     -32.28940000     -73.20650000
S      -46.50310000     -36.81140000     -72.24190000
S      -47.04420000     -30.26940000     -73.00440000
C      -45.44330000     -35.87270000     -71.08260000
H      -44.87860000     -36.63800000     -70.54400000
H      -44.80820000     -35.30210000     -71.73840000
C      -46.35710000     -30.91020000     -71.35140000
H      -47.13050000     -31.43870000     -70.80180000
H      -45.99900000     -30.07380000     -70.81860000
C      -45.20590000     -31.92890000     -71.56030000
H      -45.48080000     -32.79830000     -72.06210000
H      -44.49970000     -31.40580000     -72.21120000
C      -46.22000000     -34.96360000     -70.12970000
H      -47.06090000     -35.52400000     -69.59060000
H      -46.72410000     -34.23820000     -70.72260000
C      -45.28390000     -34.35300000     -69.10600000
C      -45.03170000     -35.05310000     -67.94040000
C      -44.54980000     -33.13920000     -69.22010000
H      -45.36070000     -36.01410000     -67.53740000
C      -43.71350000     -32.92590000     -68.11280000
C      -44.37260000     -32.12480000     -70.27810000
C      -43.45430000     -31.13990000     -69.93810000
S      -43.89400000     -34.17810000     -66.89200000
S      -42.90050000     -31.35070000     -68.23140000
H      -43.08450000     -30.33630000     -70.49390000
