40
Properties=species:S:1:pos:R:3 #=T CELL(abcABC):=T 1.889726e+02=T 90.00000=T Traj:=T positionsangstrom=T Step:=T 0=T Bead:=T pbc="F F F"
C      -45.57840000     -32.35890000     -74.91560000
C      -46.67710000     -32.72400000     -74.14100000
C      -46.82060000     -34.08400000     -73.82960000
C      -45.99650000     -35.07700000     -74.28250000
C      -44.86300000     -34.68200000     -74.94750000
C      -44.59910000     -33.32900000     -75.30420000
H      -45.46380000     -31.32620000     -75.22440000
H      -47.70180000     -34.37280000     -73.23860000
H      -44.23150000     -35.57340000     -75.09860000
H      -43.68360000     -32.93810000     -75.73590000
C      -46.17740000     -36.56550000     -73.99050000
H      -45.34140000     -37.15710000     -74.39520000
H      -47.15260000     -36.83850000     -74.37240000
C      -47.76150000     -31.71850000     -73.75020000
H      -48.33920000     -31.30160000     -74.62970000
H      -48.56960000     -32.08430000     -73.07550000
S      -46.46320000     -36.97750000     -72.21430000
S      -46.96880000     -30.25680000     -73.05870000
C      -45.28640000     -35.94230000     -71.23070000
H      -44.48890000     -36.52430000     -70.71380000
H      -44.70200000     -35.22770000     -71.88110000
C      -46.29710000     -31.02420000     -71.46130000
H      -47.00210000     -31.46810000     -70.78380000
H      -46.01780000     -30.11380000     -70.92580000
C      -45.10030000     -31.93480000     -71.57440000
H      -45.30000000     -32.96460000     -71.95580000
H      -44.39900000     -31.46510000     -72.28380000
C      -46.09830000     -35.07910000     -70.20190000
H      -46.62390000     -35.77420000     -69.57490000
H      -46.88160000     -34.47400000     -70.76850000
C      -45.26800000     -34.35410000     -69.15950000
C      -44.99890000     -34.94580000     -67.91990000
C      -44.60470000     -33.03090000     -69.26700000
H      -45.22500000     -35.93270000     -67.52650000
C      -43.73670000     -32.83230000     -68.14680000
C      -44.40460000     -32.05700000     -70.27890000
C      -43.60660000     -31.04500000     -69.80520000
S      -43.88330000     -34.02700000     -66.93940000
S      -42.75320000     -31.39810000     -68.32620000
H      -43.34870000     -30.11270000     -70.36780000
