40
Properties=species:S:1:pos:R:3 #=T CELL(abcABC):=T 1.889726e+02=T 90.00000=T Traj:=T positionsangstrom=T Step:=T 0=T Bead:=T pbc="F F F"
C      -45.88510000     -32.69380000     -75.16170000
C      -46.96170000     -33.08510000     -74.36610000
C      -46.99530000     -34.35870000     -73.80360000
C      -46.03270000     -35.36020000     -74.15380000
C      -45.04170000     -34.96020000     -75.01600000
C      -44.96500000     -33.64100000     -75.54810000
H      -45.86630000     -31.61060000     -75.53470000
H      -47.86350000     -34.65010000     -73.15530000
H      -44.31310000     -35.66340000     -75.32040000
H      -44.25930000     -33.26990000     -76.32860000
C      -46.22590000     -36.79830000     -73.60780000
H      -45.30290000     -37.32930000     -73.64060000
H      -46.92760000     -37.32930000     -74.32840000
C      -47.97450000     -32.02110000     -73.81710000
H      -48.55740000     -31.56640000     -74.57140000
H      -48.52690000     -32.56350000     -73.07370000
S      -46.81690000     -36.79460000     -71.92430000
S      -47.16620000     -30.44190000     -73.04520000
C      -45.52530000     -35.90260000     -70.98840000
H      -44.89950000     -36.66990000     -70.47250000
H      -44.97530000     -35.41630000     -71.70250000
C      -46.39670000     -31.18570000     -71.51450000
H      -47.05360000     -31.96390000     -71.16960000
H      -46.46610000     -30.34030000     -70.77420000
C      -44.92450000     -31.62770000     -71.59080000
H      -44.78990000     -32.53390000     -72.16910000
H      -44.38580000     -30.87090000     -72.07760000
C      -46.14570000     -34.85030000     -70.00560000
H      -46.97100000     -35.32110000     -69.44230000
H      -46.60350000     -34.09510000     -70.60300000
C      -45.03700000     -34.16690000     -69.13480000
C      -44.73220000     -34.67370000     -67.92780000
C      -44.29130000     -32.86750000     -69.39820000
H      -45.18330000     -35.59450000     -67.58450000
C      -43.38900000     -32.68250000     -68.32640000
C      -44.28520000     -31.77030000     -70.29040000
C      -43.26700000     -30.84580000     -69.94740000
S      -43.50860000     -33.88370000     -66.96920000
S      -42.45150000     -31.24260000     -68.45750000
H      -43.12490000     -29.87140000     -70.46450000
