40
Properties=species:S:1:pos:R:3 #=T CELL(abcABC):=T 1.889726e+02=T 90.00000=T Traj:=T positionsangstrom=T Step:=T 0=T Bead:=T pbc="F F F"
C      -45.92820000     -32.69630000     -75.14820000
C      -46.94890000     -32.98390000     -74.24910000
C      -47.03930000     -34.26960000     -73.70210000
C      -46.14250000     -35.32320000     -74.06120000
C      -45.24700000     -35.00970000     -75.03220000
C      -45.05750000     -33.72220000     -75.53100000
H      -45.66110000     -31.72810000     -75.60790000
H      -47.71210000     -34.43710000     -72.89650000
H      -44.66220000     -35.86560000     -75.43590000
H      -44.25110000     -33.41220000     -76.21530000
C      -46.22720000     -36.76290000     -73.54560000
H      -45.28610000     -37.36550000     -73.60340000
H      -46.98500000     -37.31600000     -74.10290000
C      -47.94450000     -31.92330000     -73.82560000
H      -48.51400000     -31.52160000     -74.65990000
H      -48.84290000     -32.26020000     -73.25060000
S      -46.84010000     -36.82000000     -71.78020000
S      -47.17010000     -30.49610000     -73.00650000
C      -45.57950000     -35.82050000     -70.82360000
H      -45.17790000     -36.48990000     -70.05390000
H      -44.67050000     -35.47260000     -71.41670000
C      -46.44670000     -31.19710000     -71.46120000
H      -47.08590000     -31.96220000     -71.03150000
H      -46.40500000     -30.38950000     -70.73550000
C      -44.93370000     -31.83470000     -71.64080000
H      -45.03040000     -32.86460000     -72.02790000
H      -44.38720000     -31.27600000     -72.47540000
C      -46.13790000     -34.59200000     -70.05840000
H      -46.96980000     -34.88430000     -69.33970000
H      -46.60530000     -33.89830000     -70.68680000
C      -45.02050000     -34.09030000     -69.12810000
C      -44.70090000     -34.79050000     -68.00480000
C      -44.24120000     -32.85290000     -69.34270000
H      -45.36700000     -35.53450000     -67.51930000
C      -43.31510000     -32.64660000     -68.34030000
C      -44.19110000     -31.87930000     -70.40960000
C      -43.16790000     -30.95820000     -70.15030000
S      -43.40550000     -33.90540000     -67.05850000
S      -42.44130000     -31.18970000     -68.62370000
H      -42.89090000     -30.08630000     -70.75520000
