40
Properties=species:S:1:pos:R:3 #=T CELL(abcABC):=T 1.889726e+02=T 90.00000=T Traj:=T positionsangstrom=T Step:=T 0=T Bead:=T pbc="F F F"
C      -43.55840000     -36.56100000     -71.31320000
C      -42.69090000     -35.63270000     -70.79370000
C      -42.39800000     -34.48670000     -71.55900000
C      -42.81760000     -34.36670000     -72.88660000
C      -43.60210000     -35.41960000     -73.38760000
C      -43.98550000     -36.47970000     -72.58090000
H      -43.73200000     -37.46870000     -70.77780000
H      -41.78630000     -33.67680000     -71.12660000
H      -44.06670000     -35.37570000     -74.38060000
H      -44.71020000     -37.10510000     -72.95820000
C      -42.47200000     -33.22630000     -73.83700000
H      -42.18760000     -33.64880000     -74.77290000
H      -41.67550000     -32.48890000     -73.60180000
C      -42.34490000     -35.70260000     -69.34380000
H      -42.64680000     -36.66450000     -68.87990000
H      -41.30320000     -35.48350000     -69.21470000
S      -43.85390000     -32.12350000     -74.29090000
S      -43.24600000     -34.39100000     -68.37150000
C      -43.96270000     -31.06050000     -72.73760000
H      -42.91780000     -30.82680000     -72.44310000
H      -44.45190000     -30.12780000     -73.03620000
C      -44.99050000     -34.43750000     -68.94100000
H      -45.47610000     -35.41330000     -68.56190000
H      -45.04530000     -34.42130000     -70.04470000
C      -45.76670000     -33.12380000     -68.54810000
H      -46.16370000     -33.18480000     -67.53770000
H      -45.13250000     -32.25820000     -68.43390000
C      -44.66670000     -31.65360000     -71.49580000
H      -44.54320000     -31.00220000     -70.63540000
H      -44.19930000     -32.64220000     -71.20390000
C      -46.14750000     -31.81860000     -71.69210000
C      -46.74840000     -31.53980000     -72.89350000
C      -47.08660000     -32.35040000     -70.73960000
H      -46.36470000     -30.96470000     -73.75690000
C      -48.37530000     -32.38140000     -71.28460000
C      -47.01820000     -32.95670000     -69.44040000
C      -48.27110000     -33.35910000     -69.02080000
S      -48.44820000     -31.70220000     -72.87990000
S      -49.56050000     -32.99660000     -70.10750000
H      -48.47180000     -33.94560000     -68.13600000
