40
Properties=species:S:1:pos:R:3 #=T CELL(abcABC):=T 1.889726e+02=T 90.00000=T Traj:=T positionsangstrom=T Step:=T 0=T Bead:=T pbc="F F F"
C      -45.95720000     -32.70890000     -75.01930000
C      -47.08480000     -32.93480000     -74.11550000
C      -47.27610000     -34.22070000     -73.63490000
C      -46.40280000     -35.20720000     -74.02550000
C      -45.40000000     -34.99100000     -74.96380000
C      -45.19580000     -33.74500000     -75.45330000
H      -45.64100000     -31.71180000     -75.32250000
H      -47.95670000     -34.53000000     -72.85560000
H      -44.74110000     -35.74940000     -75.30050000
H      -44.38610000     -33.60490000     -76.18930000
C      -46.64940000     -36.64230000     -73.55550000
H      -45.74290000     -37.18670000     -73.77070000
H      -47.53280000     -37.14580000     -74.08050000
C      -48.03410000     -31.82740000     -73.71020000
H      -48.51270000     -31.45170000     -74.59500000
H      -48.72770000     -32.27320000     -73.02510000
S      -46.97610000     -36.81490000     -71.68150000
S      -47.22890000     -30.42180000     -72.85350000
C      -45.59490000     -35.75760000     -70.96130000
H      -44.79140000     -36.47330000     -70.84250000
H      -45.25880000     -35.08090000     -71.73450000
C      -46.28070000     -31.29590000     -71.45640000
H      -46.96160000     -31.87180000     -70.85960000
H      -46.04460000     -30.38100000     -70.85060000
C      -45.00180000     -32.13040000     -71.73890000
H      -45.29310000     -33.19690000     -71.97350000
H      -44.54950000     -31.72870000     -72.62680000
C      -46.03360000     -34.87750000     -69.83070000
H      -46.59020000     -35.38640000     -69.06850000
H      -46.74270000     -34.05500000     -70.14900000
C      -44.84020000     -34.18740000     -69.05260000
C      -44.52600000     -34.60650000     -67.77560000
C      -44.04000000     -33.04730000     -69.48420000
H      -44.79850000     -35.42170000     -67.11770000
C      -43.10560000     -32.70770000     -68.52560000
C      -44.07740000     -32.10400000     -70.58890000
C      -43.09750000     -31.12560000     -70.45220000
S      -43.26810000     -33.60390000     -67.04140000
S      -42.23600000     -31.25930000     -68.94290000
H      -43.03060000     -30.31850000     -71.16330000
