40
Properties=species:S:1:pos:R:3 #=T CELL(abcABC):=T 1.889726e+02=T 90.00000=T Traj:=T positionsangstrom=T Step:=T 0=T Bead:=T pbc="F F F"
C      -46.22450000     -32.75940000     -75.04340000
C      -47.33900000     -33.01250000     -74.15780000
C      -47.45520000     -34.32570000     -73.70000000
C      -46.53760000     -35.31080000     -74.13150000
C      -45.38290000     -34.96700000     -74.89860000
C      -45.26760000     -33.73170000     -75.43950000
H      -46.02110000     -31.77580000     -75.48470000
H      -48.35010000     -34.65210000     -73.03890000
H      -44.64870000     -35.64890000     -75.07610000
H      -44.30610000     -33.38990000     -75.95130000
C      -46.67660000     -36.63140000     -73.48750000
H      -45.84580000     -37.26850000     -73.73710000
H      -47.59700000     -37.16610000     -73.80090000
C      -48.10950000     -31.89920000     -73.61230000
H      -48.63100000     -31.23310000     -74.32110000
H      -48.92790000     -32.24600000     -72.93570000
S      -46.81630000     -36.64760000     -71.65850000
S      -47.11520000     -30.58450000     -72.69810000
C      -45.43220000     -35.70280000     -70.90550000
H      -44.69350000     -36.35010000     -70.31330000
H      -44.79240000     -35.14890000     -71.59030000
C      -46.28180000     -31.33780000     -71.31350000
H      -46.96750000     -32.01110000     -70.77030000
H      -46.01970000     -30.54090000     -70.61290000
C      -45.04520000     -32.06610000     -71.77520000
H      -45.35480000     -33.06630000     -72.10490000
H      -44.60600000     -31.55540000     -72.61690000
C      -45.98140000     -34.78930000     -69.80720000
H      -46.54620000     -35.48710000     -69.12920000
H      -46.73850000     -34.21540000     -70.25850000
C      -44.88700000     -34.13640000     -69.01380000
C      -44.54280000     -34.57010000     -67.74640000
C      -44.18270000     -32.96370000     -69.45050000
H      -44.89560000     -35.41700000     -67.17430000
C      -43.17000000     -32.62900000     -68.53990000
C      -44.06500000     -32.17740000     -70.68510000
C      -43.07120000     -31.22060000     -70.58390000
S      -43.17430000     -33.55320000     -67.08080000
S      -42.19310000     -31.26630000     -69.13780000
H      -42.84240000     -30.57430000     -71.45880000
