40
Properties=species:S:1:pos:R:3 #=T CELL(abcABC):=T 1.889726e+02=T 90.00000=T Traj:=T positionsangstrom=T Step:=T 0=T Bead:=T pbc="F F F"
C      -41.71060000     -31.78590000     -70.72350000
C      -42.86210000     -31.36390000     -70.05660000
C      -43.87670000     -30.69610000     -70.79550000
C      -43.66330000     -30.37000000     -72.13210000
C      -42.53070000     -30.92200000     -72.80280000
C      -41.49030000     -31.58110000     -72.08700000
H      -40.86510000     -32.18440000     -70.16190000
H      -44.77000000     -30.44440000     -70.28920000
H      -42.28770000     -30.67930000     -73.78790000
H      -40.76400000     -32.01050000     -72.79250000
C      -44.72160000     -29.55080000     -72.83430000
H      -44.41960000     -29.38040000     -73.84680000
H      -44.86350000     -28.61850000     -72.28080000
C      -43.08800000     -31.60720000     -68.61500000
H      -42.11770000     -31.32940000     -68.08700000
H      -43.84220000     -30.96670000     -68.28930000
S      -46.45270000     -30.19900000     -72.99310000
S      -43.54970000     -33.32550000     -68.30950000
C      -46.18980000     -32.03850000     -73.17670000
H      -45.94770000     -32.32950000     -74.21890000
H      -45.21460000     -32.38830000     -72.71290000
C      -45.39400000     -33.41380000     -68.26620000
H      -45.72540000     -32.48550000     -67.68450000
H      -45.48510000     -34.27500000     -67.59110000
C      -46.19330000     -33.48010000     -69.58320000
H      -47.23620000     -33.11890000     -69.32330000
H      -45.77430000     -32.59530000     -70.11710000
C      -47.37920000     -32.77190000     -72.69590000
H      -48.30230000     -32.56670000     -73.23440000
H      -47.61650000     -32.43600000     -71.61610000
C      -47.34250000     -34.29690000     -72.69580000
C      -47.76340000     -35.13910000     -73.72490000
C      -46.79430000     -35.07440000     -71.55150000
H      -47.96910000     -34.76010000     -74.73930000
C      -46.80790000     -36.43660000     -71.85000000
C      -46.22950000     -34.79020000     -70.27590000
C      -45.90480000     -35.95570000     -69.58130000
S      -47.44340000     -36.87210000     -73.41930000
S      -46.09080000     -37.42710000     -70.57620000
H      -45.47320000     -35.94470000     -68.56150000
