40
Properties=species:S:1:pos:R:3 #=T CELL(abcABC):=T 1.889726e+02=T 90.00000=T Traj:=T positionsangstrom=T Step:=T 0=T Bead:=T pbc="F F F"
C      -41.99780000     -33.79070000     -71.91640000
C      -42.27590000     -34.40830000     -70.64920000
C      -43.14980000     -35.46030000     -70.54860000
C      -43.84840000     -35.93870000     -71.70290000
C      -43.63580000     -35.32410000     -72.96380000
C      -42.68350000     -34.27820000     -73.05240000
H      -41.37990000     -32.92130000     -71.89090000
H      -43.12380000     -36.05590000     -69.65090000
H      -44.24380000     -35.68440000     -73.83190000
H      -42.45770000     -33.97640000     -74.03860000
C      -44.70920000     -37.08850000     -71.45020000
H      -44.75650000     -37.27450000     -70.37670000
H      -44.32180000     -38.06340000     -71.89330000
C      -41.53190000     -33.86560000     -69.42430000
H      -41.34050000     -34.56550000     -68.56800000
H      -40.60030000     -33.43630000     -69.69450000
S      -46.40680000     -36.79490000     -72.14550000
S      -42.33240000     -32.34260000     -68.53010000
C      -47.36920000     -36.09380000     -70.71950000
H      -48.38650000     -36.21550000     -70.98800000
H      -47.18820000     -36.68600000     -69.87030000
C      -43.40090000     -31.43690000     -69.64400000
H      -43.11100000     -31.21250000     -70.62700000
H      -43.52140000     -30.43920000     -69.19110000
C      -44.81410000     -32.09690000     -69.72740000
H      -44.78550000     -33.12860000     -69.98550000
H      -45.28160000     -32.03640000     -68.78020000
C      -47.13190000     -34.56700000     -70.37680000
H      -46.02610000     -34.62630000     -70.18380000
H      -47.72120000     -34.34200000     -69.49760000
C      -47.54630000     -33.47750000     -71.34000000
C      -48.68190000     -33.49490000     -72.06230000
C      -46.75140000     -32.21830000     -71.54280000
H      -49.34220000     -34.37140000     -72.10120000
C      -47.46430000     -31.33930000     -72.41090000
C      -45.60570000     -31.57370000     -70.86410000
C      -45.44010000     -30.28840000     -71.32650000
S      -48.99610000     -31.98990000     -72.99120000
S      -46.71790000     -29.76530000     -72.50250000
H      -44.61340000     -29.66700000     -71.02380000
