40
Properties=species:S:1:pos:R:3 #=T CELL(abcABC):=T 1.889726e+02=T 90.00000=T Traj:=T positionsangstrom=T Step:=T 0=T Bead:=T pbc="F F F"
C      -41.76790000     -34.00810000     -71.54120000
C      -42.16580000     -34.23060000     -70.21740000
C      -43.22270000     -35.07640000     -70.02540000
C      -43.80120000     -35.81280000     -71.10980000
C      -43.42030000     -35.61010000     -72.41950000
C      -42.42050000     -34.64760000     -72.61780000
H      -40.87250000     -33.36620000     -71.68730000
H      -43.59300000     -35.29900000     -69.03280000
H      -43.85090000     -35.98680000     -73.27000000
H      -42.24020000     -34.19830000     -73.57820000
C      -44.88550000     -36.76220000     -70.73990000
H      -45.05840000     -36.65710000     -69.70780000
H      -44.66850000     -37.82620000     -70.79060000
C      -41.43380000     -33.46500000     -69.08390000
H      -41.26250000     -34.24160000     -68.32630000
H      -40.51160000     -32.95170000     -69.41270000
S      -46.41750000     -36.47000000     -71.80850000
S      -42.55540000     -32.10900000     -68.35660000
C      -47.62630000     -35.83770000     -70.60830000
H      -48.65430000     -36.06230000     -71.09310000
H      -47.57720000     -36.42290000     -69.74610000
C      -43.51220000     -31.43550000     -69.79300000
H      -42.91440000     -31.47680000     -70.69860000
H      -43.65090000     -30.43980000     -69.56510000
C      -44.89530000     -32.05900000     -69.98500000
H      -44.83340000     -33.12140000     -69.80190000
H      -45.52170000     -31.80400000     -69.15620000
C      -47.48060000     -34.34280000     -70.21860000
H      -46.44750000     -34.27080000     -69.94810000
H      -48.14840000     -34.22410000     -69.35540000
C      -47.74060000     -33.31650000     -71.28470000
C      -48.77740000     -33.49010000     -72.25330000
C      -46.90240000     -32.26370000     -71.72240000
H      -49.70970000     -34.03710000     -72.13340000
C      -47.41960000     -31.63610000     -72.86400000
C      -45.62990000     -31.66760000     -71.28250000
C      -45.21870000     -30.66670000     -72.07180000
S      -48.94720000     -32.17940000     -73.37740000
S      -46.37660000     -30.35800000     -73.42530000
H      -44.29850000     -30.11940000     -71.92260000
