40
Properties=species:S:1:pos:R:3 #=T CELL(abcABC):=T 1.889726e+02=T 90.00000=T Traj:=T positionsangstrom=T Step:=T 0=T Bead:=T pbc="F F F"
C      -45.43720000     -37.35460000     -72.01290000
C      -44.40880000     -36.80640000     -71.18780000
C      -43.56420000     -35.79270000     -71.78010000
C      -43.47770000     -35.69240000     -73.14320000
C      -44.44960000     -36.25180000     -73.99200000
C      -45.32340000     -37.15990000     -73.38130000
H      -46.13400000     -38.17530000     -71.65190000
H      -42.77350000     -35.33590000     -71.11410000
H      -44.52910000     -36.18860000     -75.09100000
H      -46.18200000     -37.47910000     -73.98940000
C      -42.43280000     -34.77220000     -73.73220000
H      -41.85250000     -35.15350000     -74.56060000
H      -41.70830000     -34.47420000     -72.91570000
C      -44.42070000     -37.14050000     -69.68780000
H      -45.42060000     -37.64680000     -69.42040000
H      -43.61830000     -37.95110000     -69.58470000
S      -43.04440000     -33.20280000     -74.50480000
S      -44.14310000     -35.72880000     -68.58380000
C      -44.65060000     -32.60910000     -73.86900000
H      -44.82280000     -31.67810000     -74.34290000
H      -45.45930000     -33.33620000     -74.16020000
C      -45.38700000     -34.44800000     -69.23910000
H      -46.19300000     -34.41880000     -68.54990000
H      -45.79220000     -34.77300000     -70.17600000
C      -44.76560000     -33.03650000     -69.30860000
H      -44.13020000     -32.91240000     -68.38300000
H      -44.20240000     -32.86810000     -70.22660000
C      -44.82000000     -32.48240000     -72.29850000
H      -43.87660000     -32.18210000     -71.81300000
H      -45.13120000     -33.39710000     -71.88220000
C      -45.91110000     -31.50040000     -71.97120000
C      -46.61560000     -30.66800000     -72.78100000
C      -46.31360000     -31.36440000     -70.51270000
H      -46.60380000     -30.54540000     -73.88280000
C      -47.31060000     -30.45920000     -70.38450000
C      -45.92160000     -32.03490000     -69.29020000
C      -46.69960000     -31.65490000     -68.27360000
S      -47.81050000     -29.69950000     -71.87870000
S      -47.91770000     -30.39880000     -68.75520000
H      -46.55310000     -31.98540000     -67.22780000
