40
Properties=species:S:1:pos:R:3 #=T CELL(abcABC):=T 1.889726e+02=T 90.00000=T Traj:=T positionsangstrom=T Step:=T 0=T Bead:=T pbc="F F F"
C      -44.97760000     -37.09280000     -71.96960000
C      -43.88210000     -36.56340000     -71.29740000
C      -43.09380000     -35.61070000     -71.97960000
C      -43.31330000     -35.39100000     -73.36090000
C      -44.39550000     -36.00470000     -74.02270000
C      -45.19460000     -36.89370000     -73.31470000
H      -45.66380000     -37.82490000     -71.38700000
H      -42.30870000     -35.14460000     -71.35770000
H      -44.42870000     -35.98390000     -75.14360000
H      -45.98970000     -37.46690000     -73.84270000
C      -42.58770000     -34.27920000     -74.04720000
H      -41.79630000     -34.76910000     -74.62580000
H      -42.02970000     -33.80800000     -73.20710000
C      -43.69950000     -36.91100000     -69.83700000
H      -44.48470000     -37.51250000     -69.46570000
H      -42.74320000     -37.40300000     -69.70440000
S      -43.75560000     -33.18020000     -74.94130000
S      -43.46590000     -35.40450000     -68.70970000
C      -45.12820000     -32.86330000     -73.70180000
H      -45.71470000     -32.16410000     -74.25280000
H      -45.72090000     -33.76800000     -73.60500000
C      -44.90580000     -34.37080000     -69.27490000
H      -45.82110000     -34.78080000     -68.77840000
H      -45.08090000     -34.53280000     -70.34580000
C      -44.69140000     -32.94110000     -68.89930000
H      -44.55270000     -32.86040000     -67.87620000
H      -43.85320000     -32.57850000     -69.45770000
C      -44.75060000     -32.17210000     -72.37570000
H      -43.97790000     -31.41580000     -72.51870000
H      -44.33630000     -32.99680000     -71.83010000
C      -45.97390000     -31.49490000     -71.76090000
C      -46.82940000     -30.70650000     -72.52920000
C      -46.42920000     -31.63610000     -70.42430000
H      -46.71620000     -30.28370000     -73.54650000
C      -47.65050000     -31.01930000     -70.27750000
C      -45.93770000     -32.17470000     -69.18350000
C      -46.80280000     -31.90550000     -68.17220000
S      -48.11560000     -29.96520000     -71.57020000
S      -48.29650000     -31.02160000     -68.68580000
H      -46.77790000     -32.24690000     -67.13380000
