40
Properties=species:S:1:pos:R:3 #=T CELL(abcABC):=T 1.889726e+02=T 90.00000=T Traj:=T positionsangstrom=T Step:=T 0=T Bead:=T pbc="F F F"
C      -42.47240000     -33.61000000     -71.34730000
C      -42.58380000     -34.05460000     -70.03240000
C      -43.44790000     -35.14040000     -69.73680000
C      -44.25210000     -35.69310000     -70.76220000
C      -43.99580000     -35.24560000     -72.11460000
C      -43.00430000     -34.28900000     -72.38970000
H      -41.75570000     -32.84820000     -71.59800000
H      -43.41440000     -35.65580000     -68.75330000
H      -44.62120000     -35.81800000     -72.84490000
H      -42.72030000     -33.96640000     -73.45320000
C      -45.31760000     -36.75410000     -70.54630000
H      -45.58340000     -36.79780000     -69.53320000
H      -45.04160000     -37.80190000     -70.78930000
C      -41.86430000     -33.27110000     -68.93400000
H      -41.52230000     -33.93680000     -68.14030000
H      -40.98000000     -32.76240000     -69.28250000
S      -46.87630000     -36.50220000     -71.49320000
S      -42.81860000     -31.94810000     -68.05230000
C      -47.79910000     -35.56090000     -70.22540000
H      -48.83690000     -35.46250000     -70.53110000
H      -47.73540000     -36.03840000     -69.23660000
C      -43.59270000     -31.10670000     -69.53200000
H      -42.83570000     -31.25030000     -70.29360000
H      -43.72000000     -30.10410000     -69.24150000
C      -45.06630000     -31.64550000     -69.90440000
H      -44.97970000     -32.68830000     -69.58280000
H      -45.75050000     -31.00230000     -69.34080000
C      -47.34990000     -34.14490000     -70.24740000
H      -46.34460000     -34.10250000     -69.79550000
H      -47.99000000     -33.57650000     -69.56160000
C      -47.32500000     -33.50310000     -71.62030000
C      -48.22790000     -33.83490000     -72.59440000
C      -46.48830000     -32.40710000     -71.96520000
H      -48.83560000     -34.82360000     -72.48800000
C      -46.87170000     -31.89790000     -73.22820000
C      -45.46430000     -31.62250000     -71.37500000
C      -45.06930000     -30.57120000     -72.17020000
S      -48.03390000     -32.84300000     -74.10560000
S      -45.76930000     -30.68710000     -73.82200000
H      -44.24440000     -29.92580000     -71.94510000
