40
Properties=species:S:1:pos:R:3 #=T CELL(abcABC):=T 1.889726e+02=T 90.00000=T Traj:=T positionsangstrom=T Step:=T 0=T Bead:=T pbc="F F F"
C      -42.55510000     -33.56120000     -71.26640000
C      -42.84450000     -33.99790000     -69.98590000
C      -43.80050000     -35.02620000     -69.77560000
C      -44.43890000     -35.66260000     -70.84510000
C      -44.11030000     -35.23760000     -72.15370000
C      -43.24720000     -34.12820000     -72.32690000
H      -41.70880000     -32.85600000     -71.45660000
H      -44.13660000     -35.20850000     -68.73390000
H      -44.57710000     -35.71650000     -72.99090000
H      -43.08650000     -33.74990000     -73.34910000
C      -45.18670000     -36.90160000     -70.63800000
H      -45.24480000     -36.97990000     -69.55120000
H      -44.65530000     -37.78140000     -71.04770000
C      -42.08540000     -33.44190000     -68.79850000
H      -42.22790000     -34.11620000     -67.94040000
H      -40.98940000     -33.25970000     -69.09140000
S      -46.86270000     -36.80150000     -71.44810000
S      -42.90220000     -31.81160000     -68.19460000
C      -47.73640000     -35.61100000     -70.37390000
H      -48.76860000     -35.52510000     -70.76380000
H      -47.95130000     -36.11090000     -69.42370000
C      -43.70060000     -31.00260000     -69.60680000
H      -43.11260000     -30.90910000     -70.52440000
H      -43.74040000     -29.91800000     -69.30850000
C      -45.10510000     -31.62530000     -69.87470000
H      -45.25930000     -32.62680000     -69.43540000
H      -45.90640000     -31.16380000     -69.27250000
C      -47.25910000     -34.20200000     -70.20400000
H      -46.22840000     -34.09250000     -69.80700000
H      -47.86940000     -33.72020000     -69.46250000
C      -47.30480000     -33.39440000     -71.53230000
C      -48.19300000     -33.75150000     -72.49960000
C      -46.41120000     -32.32850000     -71.98020000
H      -49.03960000     -34.48570000     -72.49260000
C      -46.62470000     -31.94950000     -73.32000000
C      -45.45950000     -31.49480000     -71.32530000
C      -44.89800000     -30.57770000     -72.17930000
S      -47.83970000     -32.90800000     -74.06070000
S      -45.54920000     -30.64800000     -73.78020000
H      -44.20810000     -29.79420000     -71.89990000
