40
Properties=species:S:1:pos:R:3 #=T CELL(abcABC):=T 1.889726e+02=T 90.00000=T Traj:=T positionsangstrom=T Step:=T 0=T Bead:=T pbc="F F F"
C      -42.71100000     -33.48390000     -71.22600000
C      -42.92850000     -33.98510000     -69.93730000
C      -43.76930000     -35.09340000     -69.84210000
C      -44.34300000     -35.76210000     -70.98220000
C      -44.12110000     -35.20870000     -72.23320000
C      -43.34570000     -34.01480000     -72.35510000
H      -42.13390000     -32.53010000     -71.37750000
H      -43.87780000     -35.57390000     -68.91710000
H      -44.56070000     -35.58520000     -73.12980000
H      -43.28950000     -33.70350000     -73.33300000
C      -45.19910000     -36.98770000     -70.74080000
H      -45.24620000     -37.38980000     -69.71390000
H      -44.74200000     -37.77160000     -71.33770000
C      -42.31700000     -33.31070000     -68.60960000
H      -42.40310000     -33.99350000     -67.76630000
H      -41.25640000     -33.32220000     -68.76220000
S      -46.92230000     -36.94480000     -71.38340000
S      -42.73830000     -31.62480000     -67.99170000
C      -47.89870000     -35.69000000     -70.35000000
H      -48.93390000     -35.76880000     -70.66830000
H      -47.84290000     -36.00520000     -69.28260000
C      -43.66570000     -30.89980000     -69.51490000
H      -43.05660000     -31.10370000     -70.39900000
H      -43.65700000     -29.79780000     -69.32140000
C      -45.03710000     -31.53830000     -69.76640000
H      -45.00200000     -32.62590000     -69.57030000
H      -45.89410000     -31.15620000     -69.14940000
C      -47.38820000     -34.23040000     -70.35080000
H      -46.40340000     -34.20300000     -69.84700000
H      -48.10270000     -33.77810000     -69.62050000
C      -47.30380000     -33.57000000     -71.71120000
C      -47.94580000     -33.92100000     -72.87570000
C      -46.49330000     -32.34680000     -71.96410000
H      -48.66580000     -34.67470000     -73.12290000
C      -46.55930000     -31.97370000     -73.29540000
C      -45.48780000     -31.49040000     -71.23160000
C      -44.92480000     -30.59450000     -72.09340000
S      -47.76590000     -32.86150000     -74.21420000
S      -45.52780000     -30.63730000     -73.72940000
H      -44.29390000     -29.77540000     -71.78530000
