40
Properties=species:S:1:pos:R:3 #=T CELL(abcABC):=T 1.889726e+02=T 90.00000=T Traj:=T positionsangstrom=T Step:=T 0=T Bead:=T pbc="F F F"
C      -42.64050000     -33.49840000     -71.20200000
C      -42.84430000     -33.94970000     -69.87750000
C      -43.56200000     -35.15020000     -69.78650000
C      -44.30700000     -35.69790000     -70.82380000
C      -44.21250000     -35.06710000     -72.05520000
C      -43.32520000     -34.05210000     -72.31920000
H      -42.01870000     -32.57340000     -71.34190000
H      -43.52680000     -35.62140000     -68.79290000
H      -44.83830000     -35.33860000     -72.89370000
H      -43.26600000     -33.46400000     -73.28050000
C      -45.11300000     -36.94700000     -70.72020000
H      -45.28200000     -37.27390000     -69.64500000
H      -44.50600000     -37.72620000     -71.19400000
C      -42.19530000     -33.26880000     -68.67950000
H      -42.02620000     -34.01980000     -67.91650000
H      -41.25720000     -32.89060000     -68.97520000
S      -46.79120000     -36.76820000     -71.51560000
S      -43.25480000     -31.92900000     -67.77310000
C      -47.72040000     -35.63860000     -70.35700000
H      -48.70100000     -35.77890000     -70.67370000
H      -47.68940000     -36.15940000     -69.37250000
C      -43.82740000     -30.94550000     -69.30790000
H      -43.00780000     -31.08940000     -69.90870000
H      -43.84480000     -29.91810000     -69.00130000
C      -45.18090000     -31.60300000     -69.83660000
H      -45.17090000     -32.69170000     -69.74630000
H      -45.94150000     -31.33930000     -69.10550000
C      -47.21680000     -34.18380000     -70.41660000
H      -46.26580000     -34.23820000     -69.83270000
H      -47.87280000     -33.50390000     -69.80180000
C      -47.11300000     -33.58690000     -71.73280000
C      -47.79460000     -34.02460000     -72.88960000
C      -46.39880000     -32.33020000     -72.00700000
H      -48.46740000     -34.92780000     -73.08700000
C      -46.43530000     -31.99580000     -73.36410000
C      -45.60850000     -31.33930000     -71.29540000
C      -45.30220000     -30.28200000     -72.10320000
S      -47.44700000     -33.10750000     -74.31470000
S      -45.73650000     -30.48950000     -73.84640000
H      -44.56710000     -29.45750000     -72.00690000
