40
Properties=species:S:1:pos:R:3 #=T CELL(abcABC):=T 1.889726e+02=T 90.00000=T Traj:=T positionsangstrom=T Step:=T 0=T Bead:=T pbc="F F F"
C      -42.36320000     -33.42690000     -71.14350000
C      -42.82270000     -33.62190000     -69.78830000
C      -43.60360000     -34.77080000     -69.44730000
C      -44.19990000     -35.54440000     -70.51060000
C      -43.85070000     -35.18850000     -71.82700000
C      -42.84010000     -34.25620000     -72.15050000
H      -41.65550000     -32.62980000     -71.28480000
H      -43.85240000     -35.06650000     -68.48120000
H      -44.28420000     -35.82420000     -72.57480000
H      -42.49760000     -34.02960000     -73.18570000
C      -45.06340000     -36.70990000     -70.15530000
H      -45.58250000     -36.76520000     -69.20520000
H      -44.42780000     -37.51620000     -70.23210000
C      -42.23160000     -32.71790000     -68.76670000
H      -41.50080000     -33.21100000     -68.04060000
H      -41.65270000     -31.91450000     -69.26160000
S      -46.40730000     -36.95100000     -71.46470000
S      -43.57190000     -31.86700000     -67.71660000
C      -47.83200000     -35.81280000     -70.78620000
H      -48.68930000     -36.00370000     -71.35670000
H      -47.86640000     -36.24310000     -69.76330000
C      -44.48860000     -30.90590000     -69.08810000
H      -43.64170000     -30.47860000     -69.59060000
H      -45.00580000     -29.99540000     -68.60110000
C      -45.45850000     -31.75390000     -69.79960000
H      -44.99910000     -32.76130000     -69.84830000
H      -46.41530000     -31.93800000     -69.32890000
C      -47.45040000     -34.35050000     -70.70010000
H      -46.63680000     -34.18810000     -70.03790000
H      -48.23150000     -33.78110000     -70.21790000
C      -47.06840000     -33.76760000     -72.10100000
C      -47.48800000     -34.27180000     -73.30170000
C      -46.58790000     -32.43010000     -72.20480000
H      -47.96790000     -35.19240000     -73.47960000
C      -46.63680000     -31.97550000     -73.54930000
C      -45.87710000     -31.47980000     -71.28160000
C      -45.34140000     -30.45930000     -72.00890000
S      -47.26590000     -33.13980000     -74.63910000
S      -45.79120000     -30.40480000     -73.70270000
H      -44.63970000     -29.69440000     -71.70070000
