40
Properties=species:S:1:pos:R:3 #=T CELL(abcABC):=T 1.889726e+02=T 90.00000=T Traj:=T positionsangstrom=T Step:=T 0=T Bead:=T pbc="F F F"
C      -44.02520000     -37.44940000     -72.28480000
C      -43.20870000     -36.36170000     -71.89810000
C      -42.91770000     -35.32040000     -72.83070000
C      -43.60420000     -35.20510000     -74.04700000
C      -44.44310000     -36.29890000     -74.33260000
C      -44.59810000     -37.47430000     -73.56090000
H      -44.11990000     -38.33850000     -71.62480000
H      -42.11390000     -34.55770000     -72.56830000
H      -45.09930000     -36.33460000     -75.21060000
H      -45.21360000     -38.21050000     -73.97060000
C      -43.48010000     -34.07800000     -75.01400000
H      -43.92280000     -34.35250000     -75.99150000
H      -42.43580000     -33.96900000     -75.16870000
C      -42.49840000     -36.36110000     -70.54930000
H      -42.98480000     -37.15140000     -69.92200000
H      -41.48180000     -36.77680000     -70.60210000
S      -44.26010000     -32.46510000     -74.48000000
S      -42.62080000     -34.78540000     -69.65730000
C      -44.87040000     -32.59540000     -72.81100000
H      -45.63680000     -33.43350000     -72.75760000
H      -44.05140000     -32.93000000     -72.04710000
C      -44.41200000     -34.37590000     -69.62240000
H      -44.90490000     -34.97380000     -68.84360000
H      -44.79410000     -34.63670000     -70.61830000
C      -44.46980000     -32.88120000     -69.34220000
H      -43.82670000     -32.55690000     -68.59470000
H      -44.10760000     -32.26640000     -70.11480000
C      -45.38890000     -31.17060000     -72.44490000
H      -45.54520000     -30.58050000     -73.37330000
H      -44.49960000     -30.67170000     -72.09430000
C      -46.61490000     -31.23630000     -71.50180000
C      -47.79820000     -30.61490000     -71.97100000
C      -46.68940000     -31.72350000     -70.10990000
H      -47.99560000     -30.13790000     -72.92130000
C      -47.95330000     -31.34180000     -69.57380000
C      -45.84770000     -32.39110000     -69.15080000
C      -46.49810000     -32.58630000     -67.93580000
S      -49.08180000     -30.77240000     -70.69420000
S      -48.11820000     -31.84510000     -67.95160000
H      -46.05810000     -32.96040000     -66.98910000
