40
Properties=species:S:1:pos:R:3 #=T CELL(abcABC):=T 1.889726e+02=T 90.00000=T Traj:=T positionsangstrom=T Step:=T 0=T Bead:=T pbc="F F F"
C      -43.68200000     -36.68290000     -70.89070000
C      -42.91970000     -35.59930000     -70.45330000
C      -42.54560000     -34.63450000     -71.37390000
C      -42.92380000     -34.74480000     -72.73580000
C      -43.79060000     -35.78510000     -73.07290000
C      -44.16510000     -36.78880000     -72.17170000
H      -43.83480000     -37.45630000     -70.15820000
H      -42.15920000     -33.75130000     -70.96470000
H      -44.13440000     -35.87800000     -74.13290000
H      -44.77750000     -37.61060000     -72.55790000
C      -42.62280000     -33.65640000     -73.68160000
H      -42.16180000     -34.08520000     -74.58080000
H      -41.85320000     -32.90950000     -73.18070000
C      -42.50470000     -35.53810000     -68.99730000
H      -42.75560000     -36.44760000     -68.50850000
H      -41.43270000     -35.53260000     -68.90650000
S      -44.16960000     -32.69380000     -74.08810000
S      -43.12390000     -34.04250000     -68.22830000
C      -43.90690000     -31.10380000     -73.17790000
H      -42.86330000     -30.87150000     -72.99930000
H      -44.33450000     -30.32130000     -73.81330000
C      -44.84980000     -34.12340000     -68.97020000
H      -45.42780000     -34.85740000     -68.36840000
H      -44.91620000     -34.41350000     -70.07530000
C      -45.55700000     -32.75740000     -68.77410000
H      -45.81270000     -32.55210000     -67.66680000
H      -44.84760000     -31.96490000     -69.02550000
C      -44.63810000     -31.15140000     -71.75070000
H      -44.42590000     -30.18300000     -71.30180000
H      -44.10680000     -31.87480000     -71.15400000
C      -46.13160000     -31.46620000     -71.89120000
C      -46.82370000     -31.04950000     -73.00040000
C      -46.89700000     -32.23630000     -71.00760000
H      -46.42410000     -30.58480000     -73.91480000
C      -48.16330000     -32.54730000     -71.59250000
C      -46.82270000     -32.63800000     -69.59960000
C      -48.02710000     -33.10140000     -69.14460000
S      -48.53850000     -31.58510000     -72.98270000
S      -49.26810000     -33.30090000     -70.42940000
H      -48.06280000     -33.74180000     -68.18470000
