40
Properties=species:S:1:pos:R:3 #=T CELL(abcABC):=T 1.889726e+02=T 90.00000=T Traj:=T positionsangstrom=T Step:=T 0=T Bead:=T pbc="F F F"
C      -42.60070000     -33.46820000     -70.71590000
C      -43.18580000     -33.81390000     -69.50530000
C      -44.00720000     -34.97130000     -69.44770000
C      -44.35800000     -35.69300000     -70.60320000
C      -43.81980000     -35.28960000     -71.85930000
C      -42.94290000     -34.21360000     -71.84830000
H      -41.82220000     -32.62660000     -70.67040000
H      -44.14930000     -35.36620000     -68.42300000
H      -44.08020000     -35.90510000     -72.69940000
H      -42.52260000     -33.87980000     -72.77700000
C      -45.17120000     -36.99320000     -70.50810000
H      -45.59270000     -37.22040000     -69.52570000
H      -44.55210000     -37.77180000     -70.77560000
C      -42.82110000     -33.05330000     -68.24490000
H      -42.58060000     -33.73590000     -67.37840000
H      -41.98040000     -32.36740000     -68.46270000
S      -46.58540000     -36.99810000     -71.73810000
S      -44.25530000     -32.07970000     -67.61010000
C      -47.69800000     -35.78910000     -70.88080000
H      -48.62290000     -35.80900000     -71.48610000
H      -47.97600000     -36.11730000     -69.90890000
C      -44.75120000     -30.85200000     -69.00460000
H      -43.86490000     -30.51580000     -69.63350000
H      -45.22380000     -30.02810000     -68.45260000
C      -45.83730000     -31.55710000     -69.82870000
H      -45.91360000     -32.63520000     -69.59420000
H      -46.89380000     -31.15260000     -69.52290000
C      -47.22190000     -34.35930000     -70.80660000
H      -46.32150000     -34.45360000     -70.19910000
H      -47.97470000     -33.75760000     -70.40170000
C      -46.92520000     -33.63730000     -72.15620000
C      -46.98020000     -34.12650000     -73.42210000
C      -46.28400000     -32.26060000     -72.23560000
H      -47.33580000     -35.14540000     -73.69690000
C      -46.03760000     -31.86270000     -73.55290000
C      -45.85720000     -31.26130000     -71.32040000
C      -45.32360000     -30.14090000     -71.95120000
S      -46.50240000     -33.05580000     -74.80280000
S      -45.36570000     -30.25070000     -73.67880000
H      -45.18880000     -29.26150000     -71.39760000
