40
Properties=species:S:1:pos:R:3 #=T CELL(abcABC):=T 1.889726e+02=T 90.00000=T Traj:=T positionsangstrom=T Step:=T 0=T Bead:=T pbc="F F F"
C      -42.82610000     -33.33310000     -70.75300000
C      -43.26840000     -33.75000000     -69.46810000
C      -43.87430000     -35.00110000     -69.41000000
C      -44.14590000     -35.83800000     -70.49840000
C      -43.78360000     -35.37690000     -71.82130000
C      -43.14500000     -34.11580000     -71.90100000
H      -42.43250000     -32.29520000     -70.71170000
H      -44.26100000     -35.34610000     -68.44670000
H      -44.02480000     -35.99480000     -72.74460000
H      -42.82310000     -33.78570000     -72.90980000
C      -45.08300000     -37.04200000     -70.36450000
H      -45.64090000     -36.96310000     -69.27230000
H      -44.57760000     -38.04040000     -70.48080000
C      -42.89880000     -32.97390000     -68.25980000
H      -42.55560000     -33.63000000     -67.45880000
H      -42.10820000     -32.30350000     -68.42150000
S      -46.40460000     -37.07050000     -71.62890000
S      -44.39470000     -32.07570000     -67.50490000
C      -47.65450000     -35.74180000     -71.11810000
H      -48.29860000     -35.72660000     -71.95950000
H      -48.27330000     -36.15410000     -70.26950000
C      -44.84210000     -31.05160000     -68.93860000
H      -43.97110000     -31.11270000     -69.51320000
H      -44.88870000     -29.94440000     -68.72770000
C      -45.93280000     -31.63720000     -69.86520000
H      -45.98590000     -32.68190000     -69.65540000
H      -46.87980000     -31.18030000     -69.54810000
C      -47.09010000     -34.35460000     -70.96140000
H      -46.14280000     -34.33720000     -70.46490000
H      -47.77040000     -33.80060000     -70.22770000
C      -46.88700000     -33.60220000     -72.27380000
C      -47.06840000     -34.09170000     -73.54550000
C      -46.24460000     -32.25400000     -72.36350000
H      -47.58210000     -34.98690000     -73.77320000
C      -46.12980000     -31.72000000     -73.65370000
C      -45.72280000     -31.43030000     -71.31800000
C      -45.17360000     -30.29040000     -71.87170000
S      -46.71420000     -32.87270000     -74.87010000
S      -45.20550000     -30.26530000     -73.61300000
H      -44.67420000     -29.52590000     -71.30560000
