40
Properties=species:S:1:pos:R:3 #=T CELL(abcABC):=T 1.889726e+02=T 90.00000=T Traj:=T positionsangstrom=T Step:=T 0=T Bead:=T pbc="F F F"
C      -42.13490000     -30.85880000     -70.05260000
C      -43.50230000     -30.81250000     -69.62460000
C      -44.52360000     -30.53080000     -70.53630000
C      -44.15080000     -30.35620000     -71.87540000
C      -42.81540000     -30.44610000     -72.29030000
C      -41.77500000     -30.62130000     -71.40280000
H      -41.32740000     -31.19120000     -69.35250000
H      -45.47120000     -30.32010000     -70.23620000
H      -42.49720000     -30.37080000     -73.28650000
H      -40.84420000     -30.71290000     -71.86210000
C      -45.30090000     -30.00900000     -72.75640000
H      -45.24810000     -28.92510000     -73.04160000
H      -46.34340000     -30.25410000     -72.32770000
C      -43.84990000     -31.03360000     -68.16280000
H      -43.00140000     -30.52060000     -67.65130000
H      -44.85170000     -30.59610000     -67.87160000
S      -45.18050000     -31.01070000     -74.33440000
S      -43.85800000     -32.80450000     -67.66560000
C      -45.42000000     -32.75850000     -73.78050000
H      -45.38930000     -33.31810000     -74.78370000
H      -44.57400000     -33.07290000     -73.17480000
C      -45.40140000     -33.37970000     -68.57590000
H      -46.17380000     -32.60550000     -68.65790000
H      -45.55550000     -34.28080000     -67.94930000
C      -44.87770000     -34.00630000     -69.97470000
H      -44.75410000     -33.14820000     -70.61530000
H      -43.87590000     -34.36790000     -69.83980000
C      -46.70270000     -32.85390000     -72.90870000
H      -47.53980000     -32.40950000     -73.43380000
H      -46.51270000     -32.26830000     -71.95530000
C      -46.99140000     -34.37800000     -72.69950000
C      -47.72290000     -35.02930000     -73.66000000
C      -46.51410000     -35.24250000     -71.68200000
H      -48.19540000     -34.47740000     -74.43560000
C      -47.00320000     -36.53470000     -71.78970000
C      -45.68870000     -35.18730000     -70.51110000
C      -45.59830000     -36.33540000     -69.77760000
S      -47.91010000     -36.76110000     -73.37260000
S      -46.61780000     -37.55930000     -70.44700000
H      -45.20050000     -36.47600000     -68.79840000
