40
Properties=species:S:1:pos:R:3 #=T CELL(abcABC):=T 1.889726e+02=T 90.00000=T Traj:=T positionsangstrom=T Step:=T 0=T Bead:=T pbc="F F F"
C      -42.11700000     -30.77180000     -70.07060000
C      -43.39150000     -30.73920000     -69.54250000
C      -44.51770000     -30.49940000     -70.48900000
C      -44.22860000     -30.35560000     -71.85540000
C      -42.91260000     -30.36840000     -72.32350000
C      -41.91560000     -30.69510000     -71.42760000
H      -41.32050000     -30.92220000     -69.41100000
H      -45.53710000     -30.65110000     -70.20550000
H      -42.61280000     -30.27380000     -73.37010000
H      -40.95760000     -30.58580000     -71.82940000
C      -45.31270000     -30.05440000     -72.87610000
H      -45.21720000     -29.01290000     -73.11600000
H      -46.33050000     -30.13430000     -72.51850000
C      -43.63840000     -30.97950000     -68.10210000
H      -42.77050000     -30.64380000     -67.53080000
H      -44.54960000     -30.52030000     -67.79790000
S      -45.30440000     -30.93410000     -74.51150000
S      -43.78750000     -32.79540000     -67.63350000
C      -45.33150000     -32.64980000     -73.85750000
H      -45.51720000     -33.28500000     -74.69170000
H      -44.39930000     -32.91930000     -73.36080000
C      -45.15230000     -33.48160000     -68.71480000
H      -45.93640000     -32.70790000     -68.93160000
H      -45.64910000     -34.28430000     -68.08920000
C      -44.77120000     -34.02270000     -70.11120000
H      -45.02360000     -33.20760000     -70.79780000
H      -43.70280000     -34.26450000     -70.28890000
C      -46.57910000     -32.89510000     -72.89770000
H      -47.43400000     -32.50590000     -73.41960000
H      -46.45660000     -32.38580000     -71.95040000
C      -46.88220000     -34.40720000     -72.71360000
C      -47.68630000     -35.08980000     -73.60940000
C      -46.46720000     -35.32640000     -71.66170000
H      -48.13250000     -34.65680000     -74.51590000
C      -47.09670000     -36.55290000     -71.69580000
C      -45.63850000     -35.18570000     -70.46150000
C      -45.70210000     -36.30700000     -69.72850000
S      -48.09450000     -36.78390000     -73.14220000
S      -46.63510000     -37.61660000     -70.46200000
H      -45.22140000     -36.44410000     -68.76400000
