40
Properties=species:S:1:pos:R:3 #=T CELL(abcABC):=T 1.889726e+02=T 90.00000=T Traj:=T positionsangstrom=T Step:=T 0=T Bead:=T pbc="F F F"
C      -42.21370000     -30.98090000     -70.14670000
C      -43.51380000     -30.69950000     -69.68650000
C      -44.55130000     -30.36050000     -70.55250000
C      -44.25420000     -30.14810000     -71.91600000
C      -42.90190000     -30.33080000     -72.36340000
C      -41.95410000     -30.75100000     -71.47430000
H      -41.35660000     -31.31840000     -69.51830000
H      -45.55780000     -30.32530000     -70.13210000
H      -42.73400000     -30.21860000     -73.43170000
H      -40.85150000     -30.95190000     -71.62860000
C      -45.28780000     -29.76400000     -72.94140000
H      -45.13000000     -28.82870000     -73.48370000
H      -46.22760000     -29.78370000     -72.43980000
C      -43.80100000     -31.05600000     -68.23930000
H      -43.00410000     -30.57420000     -67.67060000
H      -44.75360000     -30.62430000     -67.88920000
S      -45.34680000     -30.92620000     -74.42530000
S      -43.59520000     -32.82490000     -67.75310000
C      -45.35310000     -32.65030000     -73.63050000
H      -45.51700000     -33.23180000     -74.55980000
H      -44.42640000     -32.91130000     -73.12100000
C      -44.88240000     -33.76560000     -68.69880000
H      -45.76340000     -33.06230000     -68.64430000
H      -45.03190000     -34.75560000     -68.20470000
C      -44.55210000     -34.12810000     -70.15010000
H      -44.64510000     -33.28140000     -70.84800000
H      -43.48640000     -34.36190000     -70.18670000
C      -46.64650000     -32.91420000     -72.77590000
H      -47.49830000     -32.38020000     -73.28860000
H      -46.45420000     -32.42600000     -71.80810000
C      -46.97190000     -34.39040000     -72.65080000
C      -47.94630000     -34.98940000     -73.46300000
C      -46.46170000     -35.31100000     -71.62820000
H      -48.65360000     -34.60900000     -74.19560000
C      -47.10610000     -36.57750000     -71.74880000
C      -45.49250000     -35.24720000     -70.51070000
C      -45.60570000     -36.39780000     -69.74680000
S      -48.24690000     -36.70230000     -73.09280000
S      -46.59450000     -37.62100000     -70.43060000
H      -45.04660000     -36.56780000     -68.84160000
