40
Properties=species:S:1:pos:R:3 #=T CELL(abcABC):=T 1.889726e+02=T 90.00000=T Traj:=T positionsangstrom=T Step:=T 0=T Bead:=T pbc="F F F"
C      -42.18930000     -30.95660000     -70.34080000
C      -43.52570000     -30.87470000     -69.88870000
C      -44.47920000     -30.35350000     -70.83760000
C      -44.13070000     -30.11530000     -72.18990000
C      -42.83140000     -30.30790000     -72.55740000
C      -41.83310000     -30.69820000     -71.67720000
H      -41.42310000     -31.22930000     -69.56440000
H      -45.50590000     -30.18370000     -70.48220000
H      -42.61070000     -30.12780000     -73.61800000
H      -40.84130000     -30.85480000     -71.95560000
C      -45.15190000     -29.58370000     -73.13900000
H      -44.78500000     -28.85110000     -73.89440000
H      -46.14680000     -29.32780000     -72.61540000
C      -43.98510000     -31.23390000     -68.51670000
H      -43.34120000     -30.54890000     -67.84100000
H      -45.06350000     -31.07750000     -68.27750000
S      -45.52800000     -31.03190000     -74.24190000
S      -43.49690000     -32.92920000     -68.02910000
C      -45.53170000     -32.54760000     -73.19780000
H      -45.54480000     -33.29660000     -73.92000000
H      -44.55050000     -32.65930000     -72.65180000
C      -44.82770000     -33.77620000     -68.97500000
H      -45.59670000     -33.07430000     -69.40560000
H      -45.36910000     -34.52320000     -68.28700000
C      -44.22060000     -34.57250000     -70.16020000
H      -43.91990000     -33.84050000     -70.84100000
H      -43.29310000     -35.05130000     -69.82630000
C      -46.58180000     -32.74070000     -72.11380000
H      -47.38010000     -32.13320000     -72.45830000
H      -46.20560000     -32.26410000     -71.20650000
C      -47.11370000     -34.12450000     -71.96140000
C      -48.33690000     -34.44530000     -72.43510000
C      -46.47150000     -35.33010000     -71.36790000
H      -49.07170000     -33.72080000     -72.79720000
C      -47.20810000     -36.51120000     -71.60710000
C      -45.14820000     -35.58750000     -70.76660000
C      -45.01120000     -36.94650000     -70.59560000
S      -48.78430000     -36.08990000     -72.30400000
S      -46.36170000     -37.93520000     -71.13070000
H      -44.10410000     -37.34460000     -70.07570000
