40
Properties=species:S:1:pos:R:3 #=T CELL(abcABC):=T 1.889726e+02=T 90.00000=T Traj:=T positionsangstrom=T Step:=T 0=T Bead:=T pbc="F F F"
C      -44.44730000     -30.75030000     -74.70000000
C      -44.03620000     -30.98020000     -73.37320000
C      -44.93090000     -30.80890000     -72.29900000
C      -46.25400000     -30.51620000     -72.58390000
C      -46.66020000     -30.20620000     -73.93470000
C      -45.79080000     -30.42450000     -74.96420000
H      -43.73520000     -30.78550000     -75.54420000
H      -44.48040000     -30.92580000     -71.25810000
H      -47.69990000     -29.98080000     -74.10540000
H      -46.12380000     -30.37660000     -76.01880000
C      -47.21110000     -30.23710000     -71.46500000
H      -47.58500000     -29.18160000     -71.63820000
H      -46.88450000     -30.40440000     -70.42540000
C      -42.51220000     -31.31430000     -73.09140000
H      -41.82970000     -30.53540000     -73.46360000
H      -42.40740000     -31.20720000     -72.02820000
S      -48.79490000     -31.30760000     -71.70110000
S      -42.04770000     -33.00810000     -73.71760000
C      -48.25000000     -32.78790000     -70.69470000
H      -48.25050000     -32.56800000     -69.60630000
H      -49.03520000     -33.54040000     -71.00080000
C      -42.31500000     -34.14810000     -72.17460000
H      -41.81110000     -33.70910000     -71.28020000
H      -41.89150000     -35.12580000     -72.48880000
C      -43.81190000     -34.22240000     -71.82150000
H      -44.13010000     -33.20070000     -71.49180000
H      -44.41250000     -34.27280000     -72.68110000
C      -46.83090000     -33.25600000     -70.87070000
H      -46.24050000     -32.50590000     -70.35390000
H      -46.59960000     -33.24390000     -71.98860000
C      -46.62350000     -34.58190000     -70.07790000
C      -47.57200000     -35.16430000     -69.18980000
C      -45.34510000     -35.26480000     -69.94640000
H      -48.44330000     -34.64860000     -68.87890000
C      -45.34480000     -36.18010000     -68.88450000
C      -44.06320000     -35.20880000     -70.66450000
C      -43.10900000     -36.01480000     -69.98450000
S      -46.84870000     -36.22150000     -68.02040000
S      -43.75670000     -36.87220000     -68.66140000
H      -42.00530000     -36.03350000     -70.15140000
