40
Properties=species:S:1:pos:R:3 #=T CELL(abcABC):=T 1.889726e+02=T 90.00000=T Traj:=T positionsangstrom=T Step:=T 0=T Bead:=T pbc="F F F"
C      -44.80900000     -31.00920000     -74.71540000
C      -44.20290000     -30.89810000     -73.45020000
C      -45.09330000     -30.55320000     -72.42120000
C      -46.47460000     -30.39670000     -72.60360000
C      -47.02290000     -30.47880000     -73.88250000
C      -46.16690000     -30.77750000     -74.95660000
H      -44.14160000     -31.10870000     -75.57180000
H      -44.65720000     -30.21650000     -71.44300000
H      -48.13220000     -30.46770000     -74.08790000
H      -46.42120000     -30.79670000     -75.98540000
C      -47.40180000     -30.06880000     -71.46480000
H      -48.01340000     -29.14230000     -71.69890000
H      -46.80920000     -29.98610000     -70.58010000
C      -42.76040000     -31.06000000     -73.33340000
H      -42.18180000     -30.37300000     -73.97660000
H      -42.50020000     -30.93140000     -72.28180000
S      -48.67920000     -31.48550000     -71.21860000
S      -42.29540000     -32.72510000     -73.87530000
C      -47.76760000     -32.70740000     -70.14650000
H      -46.92900000     -32.14920000     -69.71920000
H      -48.36950000     -33.13320000     -69.35410000
C      -42.51120000     -33.87790000     -72.37370000
H      -41.80930000     -33.48150000     -71.71320000
H      -42.17890000     -34.81820000     -72.73460000
C      -43.86770000     -33.87200000     -71.77160000
H      -44.12230000     -32.80040000     -71.49850000
H      -44.61860000     -34.02250000     -72.52640000
C      -47.27750000     -33.88820000     -71.02290000
H      -46.55920000     -33.41680000     -71.73130000
H      -48.11850000     -34.28820000     -71.58920000
C      -46.62600000     -34.86040000     -70.03310000
C      -47.40900000     -35.52570000     -69.05120000
C      -45.22850000     -35.17870000     -69.97260000
H      -48.52760000     -35.38450000     -68.81330000
C      -44.99710000     -36.19310000     -69.00420000
C      -44.00840000     -34.90310000     -70.65900000
C      -42.93360000     -35.61580000     -70.08870000
S      -46.48460000     -36.62030000     -68.07920000
S      -43.37010000     -36.66170000     -68.80660000
H      -41.87160000     -35.49220000     -70.18950000
