40
Properties=species:S:1:pos:R:3 #=T CELL(abcABC):=T 1.889726e+02=T 90.00000=T Traj:=T positionsangstrom=T Step:=T 0=T Bead:=T pbc="F F F"
C      -45.06110000     -31.06160000     -74.77260000
C      -44.44470000     -30.87730000     -73.50160000
C      -45.25010000     -30.47130000     -72.46920000
C      -46.62510000     -30.38340000     -72.55390000
C      -47.23210000     -30.67430000     -73.77140000
C      -46.45830000     -30.97790000     -74.90370000
H      -44.46500000     -31.42770000     -75.66490000
H      -44.76980000     -30.50850000     -71.46960000
H      -48.31850000     -30.42570000     -73.98680000
H      -46.81690000     -31.08530000     -75.91440000
C      -47.47610000     -30.05880000     -71.32910000
H      -47.94340000     -29.05410000     -71.47770000
H      -46.87810000     -29.89110000     -70.42710000
C      -42.92830000     -31.06490000     -73.25390000
H      -42.33610000     -30.33560000     -73.77450000
H      -42.81530000     -30.97890000     -72.15130000
S      -48.68390000     -31.40120000     -70.96250000
S      -42.32230000     -32.69400000     -73.91000000
C      -47.72110000     -32.75950000     -70.21520000
H      -46.80510000     -32.26230000     -69.79440000
H      -48.22810000     -33.00810000     -69.28740000
C      -42.42090000     -33.73270000     -72.45800000
H      -41.70960000     -33.29270000     -71.70700000
H      -41.99070000     -34.69410000     -72.75990000
C      -43.81030000     -33.89730000     -71.85000000
H      -44.23840000     -32.90870000     -71.70280000
H      -44.39320000     -34.38850000     -72.63290000
C      -47.17930000     -33.91080000     -71.07200000
H      -46.53360000     -33.57800000     -71.81440000
H      -47.95860000     -34.46310000     -71.66100000
C      -46.54870000     -34.99970000     -70.17520000
C      -47.32980000     -35.68630000     -69.24160000
C      -45.14350000     -35.27080000     -70.06460000
H      -48.43440000     -35.51000000     -69.12540000
C      -44.83540000     -36.14800000     -68.98540000
C      -43.90200000     -34.84440000     -70.67020000
C      -42.79710000     -35.33250000     -70.05160000
S      -46.33720000     -36.69870000     -68.17800000
S      -43.24410000     -36.56010000     -68.77700000
H      -41.81100000     -35.19120000     -70.36440000
