40
Properties=species:S:1:pos:R:3 #=T CELL(abcABC):=T 1.889726e+02=T 90.00000=T Traj:=T positionsangstrom=T Step:=T 0=T Bead:=T pbc="F F F"
C      -45.46800000     -31.31290000     -74.72720000
C      -44.85560000     -30.84950000     -73.57280000
C      -45.63530000     -30.41310000     -72.46870000
C      -47.01080000     -30.57840000     -72.48960000
C      -47.65620000     -31.03870000     -73.62300000
C      -46.89190000     -31.41680000     -74.75060000
H      -44.95000000     -31.48820000     -75.61850000
H      -45.10040000     -30.07240000     -71.55000000
H      -48.73210000     -30.98890000     -73.73290000
H      -47.52540000     -31.69270000     -75.53130000
C      -47.87130000     -30.19850000     -71.24330000
H      -48.59650000     -29.42940000     -71.54310000
H      -47.24000000     -29.79540000     -70.48050000
C      -43.30570000     -30.76350000     -73.67190000
H      -43.09900000     -30.01240000     -74.47050000
H      -42.95430000     -30.33680000     -72.68170000
S      -48.74580000     -31.71410000     -70.68970000
S      -42.56690000     -32.38480000     -74.10180000
C      -47.48980000     -32.83990000     -69.91240000
H      -46.62100000     -32.19950000     -69.52700000
H      -48.00160000     -33.23220000     -69.04430000
C      -42.45680000     -33.36820000     -72.46610000
H      -41.81150000     -32.73670000     -71.90910000
H      -41.99680000     -34.25690000     -72.67490000
C      -43.82280000     -33.54530000     -71.73890000
H      -44.23350000     -32.55670000     -71.42900000
H      -44.57980000     -33.80360000     -72.45650000
C      -47.07050000     -34.00640000     -70.82030000
H      -46.58320000     -33.66960000     -71.76290000
H      -48.04920000     -34.34690000     -71.06660000
C      -46.29250000     -35.00410000     -70.08710000
C      -46.97840000     -35.82530000     -69.23570000
C      -44.89410000     -35.21930000     -70.00980000
H      -48.01480000     -36.10960000     -69.14770000
C      -44.51470000     -36.17350000     -69.05770000
C      -43.75120000     -34.57480000     -70.61620000
C      -42.56900000     -35.07370000     -70.13000000
S      -45.90880000     -36.90290000     -68.32600000
S      -42.75260000     -36.38360000     -69.00040000
H      -41.53570000     -34.67090000     -70.40530000
