40
Properties=species:S:1:pos:R:3 #=T CELL(abcABC):=T 1.889726e+02=T 90.00000=T Traj:=T positionsangstrom=T Step:=T 0=T Bead:=T pbc="F F F"
C      -41.93630000     -33.17750000     -70.00350000
C      -42.90420000     -33.06830000     -68.95110000
C      -43.72510000     -34.17540000     -68.74840000
C      -43.57940000     -35.35950000     -69.45500000
C      -42.64370000     -35.49490000     -70.46650000
C      -41.77950000     -34.41680000     -70.68450000
H      -41.24240000     -32.39120000     -70.27630000
H      -44.52030000     -34.19990000     -67.97430000
H      -42.64450000     -36.38960000     -71.05750000
H      -41.04700000     -34.40590000     -71.48920000
C      -44.57280000     -36.48080000     -69.09760000
H      -45.41800000     -36.04010000     -68.60010000
H      -44.09110000     -37.21250000     -68.51650000
C      -42.98560000     -31.77870000     -68.12560000
H      -42.86230000     -32.07050000     -67.04180000
H      -42.12950000     -31.07040000     -68.39870000
S      -45.30980000     -37.46240000     -70.52430000
S      -44.58230000     -30.82670000     -68.28040000
C      -45.89560000     -36.35970000     -71.84060000
H      -45.31090000     -36.47860000     -72.71570000
H      -46.81240000     -36.72350000     -72.11780000
C      -44.94330000     -30.41350000     -70.00400000
H      -44.19070000     -29.82690000     -70.53370000
H      -45.82750000     -29.81860000     -69.97070000
C      -45.18040000     -31.68150000     -70.83940000
H      -44.19160000     -32.00920000     -71.09040000
H      -45.59340000     -32.44670000     -70.15360000
C      -46.05670000     -34.84510000     -71.51010000
H      -45.15060000     -34.38220000     -71.32970000
H      -46.64330000     -34.64280000     -70.58850000
C      -46.74570000     -34.11880000     -72.59950000
C      -47.59050000     -34.74780000     -73.49820000
C      -46.65700000     -32.72670000     -72.78940000
H      -47.97370000     -35.79600000     -73.45220000
C      -47.36460000     -32.27210000     -73.90440000
C      -46.01790000     -31.55280000     -72.09520000
C      -45.98830000     -30.42990000     -72.94690000
S      -48.21930000     -33.60650000     -74.71000000
S      -46.91770000     -30.65360000     -74.34960000
H      -45.77140000     -29.49010000     -72.55590000
