40
Properties=species:S:1:pos:R:3 #=T CELL(abcABC):=T 1.889726e+02=T 90.00000=T Traj:=T positionsangstrom=T Step:=T 0=T Bead:=T pbc="F F F"
C      -45.70290000     -31.20550000     -75.07970000
C      -45.07620000     -30.89680000     -73.90690000
C      -45.78310000     -30.84460000     -72.71880000
C      -47.19410000     -30.79080000     -72.74620000
C      -47.87640000     -30.98700000     -73.95790000
C      -47.10300000     -31.20170000     -75.15330000
H      -45.11520000     -31.34050000     -75.98490000
H      -45.31610000     -30.53360000     -71.81970000
H      -48.94060000     -30.77140000     -74.02260000
H      -47.64560000     -31.35200000     -76.05890000
C      -47.83100000     -30.41580000     -71.44440000
H      -48.68590000     -29.72390000     -71.72910000
H      -47.11820000     -29.97320000     -70.75520000
C      -43.58590000     -30.59510000     -73.92620000
H      -43.22020000     -30.16880000     -74.83780000
H      -43.35580000     -29.95260000     -73.13860000
S      -48.58730000     -31.82500000     -70.55750000
S      -42.62870000     -32.19310000     -73.98570000
C      -47.16260000     -32.74130000     -69.89810000
H      -46.12600000     -32.37000000     -69.84300000
H      -47.41900000     -32.93260000     -68.86870000
C      -42.70130000     -32.89900000     -72.27350000
H      -42.26480000     -32.35980000     -71.43050000
H      -41.98650000     -33.72330000     -72.45600000
C      -44.02170000     -33.64370000     -71.79550000
H      -44.64250000     -32.87040000     -71.43310000
H      -44.47300000     -34.16520000     -72.56320000
C      -47.13530000     -34.11810000     -70.58960000
H      -46.68690000     -33.96090000     -71.57240000
H      -48.16210000     -34.43790000     -70.67170000
C      -46.27790000     -35.10550000     -69.78000000
C      -46.85460000     -35.92530000     -68.87620000
C      -44.82560000     -35.18510000     -69.82410000
H      -47.82630000     -35.75020000     -68.43450000
C      -44.34970000     -36.19530000     -68.97640000
C      -43.72590000     -34.54860000     -70.63200000
C      -42.54380000     -35.10990000     -70.30010000
S      -45.64390000     -37.03800000     -68.09630000
S      -42.62840000     -36.24890000     -68.96310000
H      -41.59540000     -35.10250000     -70.81930000
