40
Properties=species:S:1:pos:R:3 #=T CELL(abcABC):=T 1.889726e+02=T 90.00000=T Traj:=T positionsangstrom=T Step:=T 0=T Bead:=T pbc="F F F"
C      -45.91420000     -31.04050000     -75.18780000
C      -45.18540000     -30.92550000     -74.02100000
C      -45.92670000     -30.68350000     -72.82060000
C      -47.27800000     -30.80040000     -72.74840000
C      -48.03490000     -31.07840000     -73.96170000
C      -47.29130000     -31.13370000     -75.19200000
H      -45.39280000     -31.13450000     -76.08940000
H      -45.38040000     -30.40650000     -71.88510000
H      -49.08450000     -31.24260000     -73.89390000
H      -47.78260000     -31.24520000     -76.12080000
C      -48.06500000     -30.38640000     -71.46780000
H      -48.97960000     -29.79950000     -71.72400000
H      -47.38300000     -29.77570000     -70.85240000
C      -43.58670000     -30.75130000     -74.00940000
H      -43.21000000     -30.31760000     -74.98890000
H      -43.47130000     -30.04210000     -73.11670000
S      -48.64880000     -31.81740000     -70.41470000
S      -42.48700000     -32.26980000     -73.81320000
C      -47.06710000     -32.69530000     -70.04730000
H      -46.24940000     -32.12620000     -70.53260000
H      -47.06360000     -32.74650000     -68.93160000
C      -42.68140000     -32.81460000     -72.07510000
H      -42.81350000     -31.91290000     -71.34750000
H      -41.76240000     -33.29400000     -71.80940000
C      -43.85510000     -33.77020000     -71.86430000
H      -44.85150000     -33.24170000     -71.73290000
H      -44.15530000     -34.49280000     -72.69470000
C      -47.11150000     -34.10440000     -70.65700000
H      -46.78060000     -34.02760000     -71.74850000
H      -48.17780000     -34.46760000     -70.76150000
C      -46.20390000     -35.17440000     -69.90940000
C      -46.74020000     -36.02660000     -68.99190000
C      -44.76630000     -35.23600000     -69.94410000
H      -47.77140000     -36.12510000     -68.95790000
C      -44.32600000     -36.18810000     -69.03390000
C      -43.63690000     -34.60920000     -70.67300000
C      -42.46910000     -35.15060000     -70.29830000
S      -45.55840000     -36.85970000     -67.99460000
S      -42.61080000     -36.30020000     -68.94960000
H      -41.47210000     -35.02700000     -70.74830000
