40
Properties=species:S:1:pos:R:3 #=T CELL(abcABC):=T 1.889726e+02=T 90.00000=T Traj:=T positionsangstrom=T Step:=T 0=T Bead:=T pbc="F F F"
C      -45.86940000     -31.31330000     -75.15330000
C      -45.16520000     -30.86560000     -73.99920000
C      -45.91380000     -30.75680000     -72.83830000
C      -47.32320000     -30.72170000     -72.79520000
C      -48.02290000     -31.03270000     -73.98630000
C      -47.27280000     -31.32020000     -75.15440000
H      -45.36440000     -31.38220000     -76.08290000
H      -45.36550000     -30.45310000     -71.91710000
H      -49.09110000     -30.88780000     -74.01790000
H      -47.75000000     -31.56840000     -76.05930000
C      -48.12550000     -30.37220000     -71.58940000
H      -49.06940000     -29.88300000     -71.82330000
H      -47.64270000     -29.60580000     -70.98390000
C      -43.73310000     -30.55320000     -73.98090000
H      -43.38210000     -30.00220000     -74.84640000
H      -43.39090000     -29.91970000     -73.15720000
S      -48.57750000     -31.85160000     -70.45860000
S      -42.70570000     -32.07600000     -73.82840000
C      -47.01740000     -32.85330000     -70.16290000
H      -46.24660000     -32.20020000     -70.48300000
H      -46.80830000     -33.03410000     -69.12160000
C      -42.81510000     -32.59650000     -72.06930000
H      -43.11330000     -31.71600000     -71.55360000
H      -41.82540000     -32.90020000     -71.71490000
C      -43.79620000     -33.76690000     -71.79460000
H      -44.83980000     -33.50880000     -71.92570000
H      -43.60570000     -34.29740000     -72.69880000
C      -47.05060000     -34.24400000     -70.84580000
H      -46.76690000     -34.19530000     -71.84460000
H      -48.05750000     -34.55430000     -70.83000000
C      -46.11080000     -35.15490000     -69.90190000
C      -46.72780000     -35.84000000     -68.85250000
C      -44.70030000     -35.23670000     -69.90020000
H      -47.80640000     -35.95320000     -68.82390000
C      -44.28330000     -36.22950000     -68.93550000
C      -43.58410000     -34.66960000     -70.62540000
C      -42.37700000     -35.20530000     -70.23330000
S      -45.58370000     -36.88140000     -67.98190000
S      -42.54120000     -36.39200000     -68.92070000
H      -41.36470000     -34.88240000     -70.50190000
