40
Properties=species:S:1:pos:R:3 #=T CELL(abcABC):=T 1.889726e+02=T 90.00000=T Traj:=T positionsangstrom=T Step:=T 0=T Bead:=T pbc="F F F"
C      -45.74110000     -31.64110000     -74.80350000
C      -45.23160000     -30.90100000     -73.79310000
C      -46.17680000     -30.46410000     -72.78400000
C      -47.57000000     -30.68290000     -72.87030000
C      -48.03550000     -31.37860000     -73.99920000
C      -47.12210000     -31.85530000     -74.90520000
H      -45.11080000     -31.84950000     -75.70110000
H      -45.80620000     -29.76870000     -72.02370000
H      -49.10240000     -31.59590000     -74.16530000
H      -47.50270000     -32.26870000     -75.85040000
C      -48.39660000     -30.40660000     -71.65340000
H      -49.38830000     -29.98680000     -71.97600000
H      -47.89500000     -29.69410000     -70.97670000
C      -43.81000000     -30.42590000     -73.77830000
H      -43.73690000     -29.75490000     -74.68010000
H      -43.65600000     -29.88130000     -72.76250000
S      -48.76260000     -31.91800000     -70.64190000
S      -42.63500000     -31.87320000     -73.88050000
C      -47.15730000     -32.81750000     -70.46120000
H      -46.48450000     -32.31760000     -71.14220000
H      -46.77310000     -32.55400000     -69.49170000
C      -42.88470000     -32.53770000     -72.18420000
H      -43.33970000     -31.75830000     -71.58550000
H      -41.93140000     -32.75190000     -71.71740000
C      -43.80300000     -33.84390000     -71.96920000
H      -44.81790000     -33.54960000     -72.14720000
H      -43.57350000     -34.51610000     -72.91000000
C      -47.09920000     -34.37330000     -70.67450000
H      -47.07830000     -34.57740000     -71.72970000
H      -48.05820000     -34.70490000     -70.30260000
C      -46.04840000     -35.13260000     -69.82920000
C      -46.54700000     -35.86930000     -68.78880000
C      -44.62570000     -35.30230000     -69.89180000
H      -47.55580000     -35.84150000     -68.33650000
C      -44.12540000     -36.08200000     -68.93160000
C      -43.57860000     -34.73440000     -70.70840000
C      -42.32720000     -35.06240000     -70.29840000
S      -45.38230000     -36.89150000     -67.96370000
S      -42.42630000     -36.18390000     -68.89000000
H      -41.44060000     -34.93340000     -70.83960000
