40
Properties=species:S:1:pos:R:3 #=T CELL(abcABC):=T 1.889726e+02=T 90.00000=T Traj:=T positionsangstrom=T Step:=T 0=T Bead:=T pbc="F F F"
C      -40.96300000     -33.58940000     -69.86210000
C      -42.24740000     -32.99970000     -69.69820000
C      -43.28420000     -33.78000000     -69.19220000
C      -43.11600000     -35.16440000     -68.98650000
C      -41.82740000     -35.77440000     -69.22710000
C      -40.77810000     -34.92770000     -69.61860000
H      -40.12520000     -32.92670000     -70.07440000
H      -44.27410000     -33.31550000     -68.95300000
H      -41.65980000     -36.77970000     -69.03800000
H      -39.78080000     -35.39390000     -69.79710000
C      -44.38610000     -35.92880000     -68.52170000
H      -45.04810000     -35.05410000     -68.16230000
H      -44.12030000     -36.59710000     -67.75640000
C      -42.30420000     -31.50530000     -69.93540000
H      -41.42270000     -30.98290000     -69.53420000
H      -42.25320000     -31.37360000     -70.99800000
S      -45.13830000     -36.89650000     -69.95310000
S      -43.80890000     -30.65080000     -69.27170000
C      -45.59030000     -35.50310000     -71.18290000
H      -44.86730000     -34.68690000     -71.11220000
H      -45.57470000     -35.92150000     -72.16540000
C      -44.86030000     -30.59180000     -70.77260000
H      -44.15330000     -30.57670000     -71.65660000
H      -45.46470000     -29.65830000     -70.83810000
C      -45.86460000     -31.70690000     -70.79970000
H      -45.41820000     -32.70220000     -70.77810000
H      -46.54550000     -31.53340000     -69.96530000
C      -47.02650000     -34.97080000     -71.03740000
H      -47.09440000     -34.25180000     -70.11750000
H      -47.63330000     -35.82340000     -70.80770000
C      -47.46820000     -34.26640000     -72.32660000
C      -48.08810000     -34.96490000     -73.35620000
C      -47.34220000     -32.86090000     -72.66790000
H      -48.38520000     -35.97390000     -73.33850000
C      -47.89210000     -32.53270000     -73.91380000
C      -46.77490000     -31.71480000     -72.02430000
C      -46.80770000     -30.66960000     -72.92640000
S      -48.46330000     -34.02090000     -74.75120000
S      -47.63900000     -30.91740000     -74.45290000
H      -46.29410000     -29.67580000     -72.80500000
