40
Properties=species:S:1:pos:R:3 #=T CELL(abcABC):=T 1.889726e+02=T 90.00000=T Traj:=T positionsangstrom=T Step:=T 0=T Bead:=T pbc="F F F"
C      -41.89230000     -33.11000000     -68.61970000
C      -43.16990000     -32.51290000     -68.47600000
C      -43.60960000     -31.62470000     -69.43610000
C      -42.83040000     -31.11740000     -70.41400000
C      -41.52820000     -31.70310000     -70.59980000
C      -41.06790000     -32.65520000     -69.68190000
H      -41.45960000     -33.92050000     -67.96870000
H      -44.69000000     -31.16750000     -69.41290000
H      -40.83460000     -31.46910000     -71.46070000
H      -40.03290000     -33.01050000     -69.65870000
C      -43.32650000     -29.89720000     -71.18740000
H      -42.51480000     -29.07790000     -71.24260000
H      -44.24040000     -29.49390000     -70.63720000
C      -44.10740000     -33.18410000     -67.40930000
H      -43.68770000     -33.03370000     -66.41720000
H      -45.00350000     -32.63760000     -67.36490000
S      -43.88850000     -30.22670000     -72.99950000
S      -44.56410000     -34.94330000     -67.82540000
C      -44.76030000     -31.85740000     -72.96270000
H      -44.72350000     -32.23220000     -73.98680000
H      -44.03010000     -32.51830000     -72.39960000
C      -45.71590000     -34.47830000     -69.13310000
H      -46.07180000     -33.53160000     -68.89670000
H      -46.49490000     -35.16670000     -69.13110000
C      -45.22660000     -34.63150000     -70.60460000
H      -44.76580000     -33.66590000     -70.91750000
H      -44.38990000     -35.38250000     -70.50860000
C      -46.12980000     -31.79730000     -72.32030000
H      -46.69820000     -30.83420000     -72.49400000
H      -46.03350000     -32.02580000     -71.19460000
C      -47.00990000     -32.91460000     -72.96810000
C      -47.97890000     -32.68200000     -73.92550000
C      -47.01090000     -34.30940000     -72.57900000
H      -48.44900000     -31.81880000     -74.22960000
C      -47.96870000     -35.07550000     -73.25470000
C      -46.33430000     -35.08920000     -71.58100000
C      -46.67810000     -36.41950000     -71.64040000
S      -48.79420000     -34.19520000     -74.50840000
S      -47.89960000     -36.74060000     -72.78640000
H      -46.19940000     -37.07360000     -70.94360000
