40
Properties=species:S:1:pos:R:3 #=T CELL(abcABC):=T 1.889726e+02=T 90.00000=T Traj:=T positionsangstrom=T Step:=T 0=T Bead:=T pbc="F F F"
C      -40.90750000     -33.55570000     -69.20020000
C      -42.06260000     -32.79950000     -69.43300000
C      -43.37980000     -33.30680000     -69.14000000
C      -43.48780000     -34.61290000     -68.57820000
C      -42.34620000     -35.32110000     -68.36410000
C      -41.02080000     -34.78930000     -68.57720000
H      -39.96720000     -33.06070000     -69.33490000
H      -44.18470000     -32.67660000     -69.45670000
H      -42.42200000     -36.37340000     -68.07640000
H      -40.19170000     -35.38160000     -68.21660000
C      -44.87590000     -35.25710000     -68.44230000
H      -45.64010000     -34.43110000     -68.42420000
H      -45.09320000     -35.79040000     -67.47970000
C      -41.80760000     -31.53720000     -70.22820000
H      -40.88690000     -31.15460000     -69.78940000
H      -41.67420000     -31.73440000     -71.30430000
S      -45.19560000     -36.52900000     -69.73220000
S      -43.20570000     -30.41610000     -70.13550000
C      -45.64930000     -35.62240000     -71.21720000
H      -44.86550000     -35.01470000     -71.67700000
H      -46.02500000     -36.41890000     -71.93810000
C      -44.04160000     -30.75900000     -71.75650000
H      -43.48760000     -31.00690000     -72.70360000
H      -44.41690000     -29.80130000     -72.05380000
C      -45.22920000     -31.78270000     -71.63610000
H      -44.78820000     -32.79440000     -71.67860000
H      -45.67980000     -31.60440000     -70.68100000
C      -46.78720000     -34.66450000     -70.82640000
H      -46.32530000     -33.88600000     -70.20130000
H      -47.52460000     -35.19520000     -70.16380000
C      -47.57610000     -34.20290000     -71.97950000
C      -48.53610000     -34.98590000     -72.57480000
C      -47.25400000     -33.05500000     -72.74270000
H      -49.05870000     -35.81110000     -72.16980000
C      -48.14580000     -33.00360000     -73.82460000
C      -46.32500000     -31.90260000     -72.68910000
C      -46.55260000     -31.17920000     -73.78800000
S      -49.17900000     -34.36140000     -74.03260000
S      -47.76660000     -31.62350000     -74.87350000
H      -46.00430000     -30.23200000     -74.10390000
