40
Properties=species:S:1:pos:R:3 #=T CELL(abcABC):=T 1.889726e+02=T 90.00000=T Traj:=T positionsangstrom=T Step:=T 0=T Bead:=T pbc="F F F"
C      -42.44290000     -34.55450000     -73.37880000
C      -42.58500000     -33.12120000     -73.28880000
C      -43.69240000     -32.54470000     -73.92420000
C      -44.65250000     -33.36460000     -74.53580000
C      -44.48530000     -34.74340000     -74.61200000
C      -43.36390000     -35.33320000     -74.00640000
H      -41.52890000     -35.00270000     -72.87870000
H      -43.83460000     -31.47950000     -73.96320000
H      -45.07620000     -35.34570000     -75.32390000
H      -43.20100000     -36.37710000     -74.00610000
C      -45.94760000     -32.64370000     -75.02940000
H      -45.75680000     -32.51220000     -76.10070000
H      -46.01530000     -31.70300000     -74.58690000
C      -41.55510000     -32.30040000     -72.57090000
H      -40.70470000     -32.85530000     -72.16340000
H      -41.19820000     -31.60870000     -73.35460000
S      -47.51400000     -33.49690000     -74.72580000
S      -42.23420000     -31.05580000     -71.33840000
C      -47.45860000     -34.36160000     -73.09630000
H      -48.41720000     -34.01760000     -72.69000000
H      -47.40520000     -35.42850000     -73.34310000
C      -42.78200000     -31.95510000     -69.84710000
H      -42.99440000     -31.31770000     -69.00010000
H      -41.94560000     -32.63910000     -69.52410000
C      -44.09270000     -32.82990000     -70.19400000
H      -44.57280000     -32.15200000     -70.97690000
H      -43.82730000     -33.68770000     -70.85520000
C      -46.37990000     -34.10640000     -72.02040000
H      -45.87490000     -33.13410000     -72.10650000
H      -45.62110000     -34.88050000     -72.03180000
C      -46.94720000     -34.13350000     -70.62100000
C      -48.20220000     -34.65590000     -70.30360000
C      -46.26360000     -33.66440000     -69.39130000
H      -48.87740000     -34.98210000     -71.08900000
C      -47.05520000     -33.86770000     -68.25340000
C      -44.99530000     -33.05920000     -69.08320000
C      -44.87450000     -32.66800000     -67.76310000
S      -48.62440000     -34.58970000     -68.57970000
S      -46.22190000     -33.22440000     -66.79410000
H      -43.98100000     -32.45470000     -67.19370000
