40
Properties=species:S:1:pos:R:3 #=T CELL(abcABC):=T 1.889726e+02=T 90.00000=T Traj:=T positionsangstrom=T Step:=T 0=T Bead:=T pbc="F F F"
C      -42.06440000     -32.98700000     -68.36190000
C      -43.39550000     -32.57540000     -68.46550000
C      -43.68070000     -31.54000000     -69.41830000
C      -42.66420000     -31.10320000     -70.32860000
C      -41.34110000     -31.68850000     -70.25190000
C      -41.02370000     -32.55080000     -69.18300000
H      -41.81490000     -33.65580000     -67.50390000
H      -44.58660000     -31.05980000     -69.48260000
H      -40.66910000     -31.39900000     -70.95110000
H      -40.05800000     -32.88000000     -69.02820000
C      -42.91710000     -30.05130000     -71.39830000
H      -42.01850000     -29.49950000     -71.50450000
H      -43.67380000     -29.25640000     -71.20250000
C      -44.45030000     -33.04130000     -67.54100000
H      -44.10570000     -32.94670000     -66.56310000
H      -45.29410000     -32.45890000     -67.71810000
S      -43.21070000     -30.79040000     -73.10460000
S      -44.80390000     -34.82290000     -67.82950000
C      -44.09810000     -32.38080000     -72.87460000
H      -43.97470000     -33.05470000     -73.82790000
H      -43.73610000     -32.99240000     -72.05330000
C      -46.15200000     -34.69990000     -69.06990000
H      -46.79730000     -33.81690000     -68.93940000
H      -46.68320000     -35.58610000     -68.97420000
C      -45.56670000     -34.71750000     -70.45910000
H      -45.20760000     -33.79830000     -70.72250000
H      -44.79300000     -35.40330000     -70.54020000
C      -45.57420000     -32.05290000     -72.66890000
H      -45.71810000     -31.06920000     -73.11060000
H      -45.78400000     -32.00780000     -71.59210000
C      -46.67090000     -33.00470000     -73.22800000
C      -47.43080000     -32.68840000     -74.32990000
C      -47.09150000     -34.24450000     -72.58090000
H      -47.17650000     -31.82410000     -75.00580000
C      -48.13290000     -34.84340000     -73.25560000
C      -46.69280000     -35.02810000     -71.44340000
C      -47.31650000     -36.26550000     -71.50090000
S      -48.63470000     -33.91860000     -74.64910000
S      -48.55560000     -36.36830000     -72.68150000
H      -47.34920000     -37.07890000     -70.70080000
