40
Properties=species:S:1:pos:R:3 #=T CELL(abcABC):=T 1.889726e+02=T 90.00000=T Traj:=T positionsangstrom=T Step:=T 0=T Bead:=T pbc="F F F"
C      -41.79870000     -33.17970000     -68.50690000
C      -43.17380000     -32.70500000     -68.58670000
C      -43.54280000     -31.78730000     -69.53620000
C      -42.55360000     -31.28390000     -70.38290000
C      -41.27720000     -31.76730000     -70.39530000
C      -40.91650000     -32.81430000     -69.51970000
H      -41.59720000     -34.01950000     -67.85890000
H      -44.53520000     -31.24280000     -69.48330000
H      -40.49330000     -31.32590000     -71.12660000
H      -39.90740000     -33.30290000     -69.54290000
C      -42.96650000     -30.31820000     -71.51480000
H      -42.32490000     -29.42270000     -71.48660000
H      -43.94750000     -30.06730000     -71.27890000
C      -44.20110000     -33.04880000     -67.50680000
H      -43.83830000     -33.08410000     -66.42770000
H      -45.09610000     -32.40240000     -67.60430000
S      -42.97680000     -31.04070000     -73.16380000
S      -44.98400000     -34.79480000     -67.61040000
C      -44.12230000     -32.43400000     -73.17940000
H      -44.17210000     -32.77040000     -74.19710000
H      -43.71380000     -33.28360000     -72.54070000
C      -46.33860000     -34.80730000     -68.81320000
H      -46.94520000     -34.01170000     -68.56770000
H      -46.79790000     -35.75380000     -68.59330000
C      -45.82280000     -34.69310000     -70.26880000
H      -45.24740000     -33.76490000     -70.42920000
H      -45.08970000     -35.51950000     -70.43650000
C      -45.51050000     -32.03340000     -72.59850000
H      -45.85460000     -30.98400000     -72.82690000
H      -45.35740000     -32.02590000     -71.51820000
C      -46.57140000     -32.96200000     -73.11220000
C      -47.20940000     -32.59040000     -74.32560000
C      -47.14740000     -34.12550000     -72.48330000
H      -47.07170000     -31.71560000     -74.86830000
C      -48.23370000     -34.57790000     -73.26660000
C      -46.86730000     -34.93050000     -71.36090000
C      -47.71280000     -36.04450000     -71.32070000
S      -48.49400000     -33.68420000     -74.73220000
S      -48.85750000     -36.08660000     -72.63980000
H      -47.56880000     -36.81850000     -70.60640000
