40
Properties=species:S:1:pos:R:3 #=T CELL(abcABC):=T 1.889726e+02=T 90.00000=T Traj:=T positionsangstrom=T Step:=T 0=T Bead:=T pbc="F F F"
C      -41.92730000     -33.30900000     -68.56100000
C      -43.17250000     -32.67650000     -68.47300000
C      -43.53470000     -31.72930000     -69.49980000
C      -42.66990000     -31.43880000     -70.52420000
C      -41.37840000     -32.04680000     -70.58940000
C      -41.04840000     -33.06330000     -69.68860000
H      -41.58760000     -34.04350000     -67.78020000
H      -44.59700000     -31.48650000     -69.48140000
H      -40.71560000     -31.83830000     -71.54330000
H      -40.02640000     -33.56600000     -69.66240000
C      -43.01410000     -30.45670000     -71.55220000
H      -42.27750000     -29.65010000     -71.59560000
H      -44.03600000     -29.93990000     -71.38520000
C      -44.14780000     -33.11280000     -67.43860000
H      -43.76800000     -32.92850000     -66.47730000
H      -44.92570000     -32.42310000     -67.56740000
S      -42.82060000     -31.04270000     -73.34260000
S      -44.80470000     -34.82440000     -67.59310000
C      -43.95630000     -32.49020000     -73.24660000
H      -43.96210000     -32.94780000     -74.26400000
H      -43.50890000     -33.28560000     -72.60730000
C      -46.26220000     -34.65300000     -68.74440000
H      -46.73410000     -33.67090000     -68.40740000
H      -47.08000000     -35.44180000     -68.64500000
C      -45.88900000     -34.46980000     -70.22460000
H      -45.50810000     -33.41230000     -70.41620000
H      -45.08830000     -35.13420000     -70.45190000
C      -45.35510000     -32.10600000     -72.65700000
H      -45.58440000     -31.18250000     -73.13300000
H      -45.33100000     -32.04980000     -71.58590000
C      -46.51680000     -32.97180000     -73.10830000
C      -47.18360000     -32.58240000     -74.26950000
C      -47.17400000     -34.08770000     -72.43840000
H      -47.06320000     -31.76360000     -74.97860000
C      -48.26710000     -34.52590000     -73.18590000
C      -47.00770000     -34.80240000     -71.22380000
C      -47.89340000     -35.87580000     -71.22350000
S      -48.55470000     -33.64030000     -74.61230000
S      -48.96210000     -35.99330000     -72.57460000
H      -48.03140000     -36.59220000     -70.51690000
