40
Properties=species:S:1:pos:R:3 #=T CELL(abcABC):=T 1.889726e+02=T 90.00000=T Traj:=T positionsangstrom=T Step:=T 0=T Bead:=T pbc="F F F"
C      -41.94810000     -33.50540000     -68.73840000
C      -43.12530000     -32.70470000     -68.77300000
C      -43.34450000     -31.80540000     -69.86960000
C      -42.40860000     -31.63910000     -70.90000000
C      -41.19180000     -32.39040000     -70.79210000
C      -41.08440000     -33.33950000     -69.80600000
H      -41.84010000     -34.26230000     -68.04050000
H      -44.17130000     -31.10400000     -69.92240000
H      -40.41290000     -32.46470000     -71.52360000
H      -40.31740000     -34.07020000     -69.76180000
C      -42.58140000     -30.55380000     -71.90320000
H      -41.65300000     -29.98940000     -71.93780000
H      -43.38700000     -29.83290000     -71.74910000
C      -44.17550000     -32.84340000     -67.69260000
H      -43.81170000     -32.40280000     -66.70100000
H      -45.04580000     -32.27340000     -67.82770000
S      -42.75730000     -31.35750000     -73.60390000
S      -44.79270000     -34.50420000     -67.35800000
C      -44.11730000     -32.59910000     -73.26520000
H      -44.20310000     -33.05220000     -74.21790000
H      -43.68820000     -33.33850000     -72.57060000
C      -46.13130000     -34.67100000     -68.63600000
H      -47.13200000     -34.31020000     -68.34810000
H      -46.28090000     -35.76570000     -68.65690000
C      -45.89410000     -34.15430000     -70.05790000
H      -45.80760000     -33.04470000     -69.93620000
H      -44.93710000     -34.48130000     -70.48610000
C      -45.48290000     -32.01020000     -72.83870000
H      -45.66120000     -31.11430000     -73.42870000
H      -45.45730000     -31.86760000     -71.71710000
C      -46.64170000     -32.89730000     -73.19860000
C      -47.37890000     -32.65520000     -74.32670000
C      -47.18220000     -33.95880000     -72.37760000
H      -47.12430000     -32.06200000     -75.14900000
C      -48.27890000     -34.62170000     -73.02420000
C      -46.98280000     -34.57150000     -71.05210000
C      -47.95010000     -35.53920000     -70.82140000
S      -48.72000000     -33.77310000     -74.49960000
S      -49.08690000     -35.83320000     -72.08190000
H      -48.00700000     -36.22730000     -69.97850000
