40
Properties=species:S:1:pos:R:3 #=T CELL(abcABC):=T 1.889726e+02=T 90.00000=T Traj:=T positionsangstrom=T Step:=T 0=T Bead:=T pbc="F F F"
C      -41.89340000     -33.60960000     -68.97340000
C      -43.02360000     -32.70810000     -68.89580000
C      -43.22360000     -31.69500000     -69.87270000
C      -42.25930000     -31.46480000     -70.89420000
C      -41.11860000     -32.32670000     -70.90130000
C      -40.99050000     -33.37030000     -70.00340000
H      -41.57480000     -34.39350000     -68.31630000
H      -44.14340000     -31.09030000     -69.80750000
H      -40.35100000     -32.07530000     -71.62260000
H      -40.03880000     -33.97430000     -70.02410000
C      -42.61030000     -30.54460000     -72.07900000
H      -41.74270000     -29.91790000     -72.24810000
H      -43.50900000     -29.90340000     -71.80710000
C      -44.06290000     -32.71030000     -67.74820000
H      -43.53940000     -32.54370000     -66.77090000
H      -44.68680000     -31.80430000     -67.88400000
S      -42.83050000     -31.44440000     -73.63850000
S      -44.83590000     -34.43720000     -67.39510000
C      -44.11390000     -32.76600000     -73.28730000
H      -44.30990000     -33.29520000     -74.24420000
H      -43.72460000     -33.53050000     -72.60550000
C      -46.26520000     -34.63040000     -68.57950000
H      -47.29320000     -34.39200000     -68.15510000
H      -46.27670000     -35.70960000     -68.62650000
C      -46.09220000     -34.01380000     -69.94210000
H      -46.25930000     -32.95040000     -69.75090000
H      -45.15490000     -34.04790000     -70.43190000
C      -45.41430000     -32.14210000     -72.69420000
H      -45.50820000     -31.10210000     -73.07950000
H      -45.31380000     -32.07750000     -71.57150000
C      -46.60130000     -32.94700000     -73.07320000
C      -47.27560000     -32.65860000     -74.23280000
C      -47.25720000     -33.97440000     -72.26040000
H      -46.99020000     -31.95140000     -74.93360000
C      -48.32440000     -34.60060000     -72.95320000
C      -47.14260000     -34.56510000     -70.97230000
C      -48.05820000     -35.57990000     -70.69410000
S      -48.68300000     -33.78560000     -74.43410000
S      -49.08500000     -35.87950000     -72.09250000
H      -48.10650000     -36.21460000     -69.73450000
