40
Properties=species:S:1:pos:R:3 #=T CELL(abcABC):=T 1.889726e+02=T 90.00000=T Traj:=T positionsangstrom=T Step:=T 0=T Bead:=T pbc="F F F"
C      -42.00080000     -33.54680000     -68.99200000
C      -43.07470000     -32.64140000     -68.96260000
C      -43.19360000     -31.64440000     -69.93590000
C      -42.28240000     -31.53160000     -71.01370000
C      -41.20380000     -32.50280000     -71.11180000
C      -41.06200000     -33.44290000     -70.02050000
H      -41.77660000     -34.29370000     -68.16840000
H      -43.98330000     -30.89500000     -69.91720000
H      -40.46470000     -32.61830000     -71.94450000
H      -40.24230000     -34.17090000     -69.98060000
C      -42.49710000     -30.55360000     -72.14890000
H      -41.67310000     -29.86640000     -72.42120000
H      -43.30170000     -29.93770000     -71.86680000
C      -44.07390000     -32.68460000     -67.84650000
H      -43.60280000     -32.33050000     -66.96040000
H      -44.94990000     -32.08980000     -68.11370000
S      -42.87990000     -31.62080000     -73.71390000
S      -44.68840000     -34.39040000     -67.42650000
C      -44.23680000     -32.64390000     -73.13000000
H      -44.57500000     -33.16780000     -74.03170000
H      -43.86530000     -33.48380000     -72.49870000
C      -46.23510000     -34.72610000     -68.42110000
H      -47.12850000     -34.35460000     -67.92490000
H      -46.15810000     -35.83170000     -68.51930000
C      -46.18290000     -34.08870000     -69.81370000
H      -46.41520000     -32.99730000     -69.77270000
H      -45.08890000     -34.07020000     -70.13800000
C      -45.49770000     -32.00900000     -72.53880000
H      -45.69710000     -30.99080000     -72.75310000
H      -45.52170000     -32.09810000     -71.50310000
C      -46.70230000     -32.79100000     -72.94610000
C      -47.27480000     -32.71150000     -74.17520000
C      -47.36270000     -33.88830000     -72.13370000
H      -46.98270000     -31.95310000     -74.85030000
C      -48.37790000     -34.45130000     -72.87810000
C      -47.20500000     -34.49610000     -70.89580000
C      -48.03710000     -35.57730000     -70.67450000
S      -48.50570000     -33.83410000     -74.49880000
S      -49.03820000     -35.83170000     -72.09550000
H      -48.13550000     -36.15600000     -69.67430000
