40
Properties=species:S:1:pos:R:3 #=T CELL(abcABC):=T 1.889726e+02=T 90.00000=T Traj:=T positionsangstrom=T Step:=T 0=T Bead:=T pbc="F F F"
C      -43.71430000     -36.33770000     -70.46540000
C      -42.70730000     -35.32340000     -70.24950000
C      -42.35730000     -34.55530000     -71.33690000
C      -42.78430000     -34.82140000     -72.65550000
C      -43.64530000     -35.92110000     -72.87280000
C      -44.08240000     -36.63360000     -71.78720000
H      -44.15040000     -36.94670000     -69.66940000
H      -41.50210000     -33.81920000     -71.21210000
H      -44.07650000     -36.13220000     -73.82410000
H      -44.88270000     -37.39780000     -71.83930000
C      -42.33680000     -33.83150000     -73.76530000
H      -41.92540000     -34.49250000     -74.55730000
H      -41.55820000     -33.13170000     -73.39880000
C      -42.24410000     -34.89920000     -68.88630000
H      -42.28500000     -35.60960000     -68.08420000
H      -41.22770000     -34.54180000     -68.78060000
S      -43.75740000     -32.81760000     -74.42970000
S      -43.20340000     -33.36210000     -68.27280000
C      -43.85140000     -31.49030000     -73.19370000
H      -42.84740000     -31.28550000     -72.88750000
H      -44.19150000     -30.59040000     -73.69930000
C      -44.93970000     -33.64540000     -68.92680000
H      -45.39720000     -34.43680000     -68.32570000
H      -44.82220000     -33.85390000     -69.94130000
C      -45.81820000     -32.42210000     -68.70390000
H      -46.06220000     -32.40180000     -67.65910000
H      -45.32290000     -31.48100000     -68.87420000
C      -44.65440000     -31.80710000     -71.94000000
H      -44.55960000     -30.82310000     -71.31540000
H      -44.15740000     -32.63490000     -71.37360000
C      -46.18620000     -32.06250000     -72.04400000
C      -46.79610000     -31.95020000     -73.27890000
C      -47.09780000     -32.44310000     -70.98400000
H      -46.14270000     -31.97900000     -74.13580000
C      -48.41110000     -32.54220000     -71.48970000
C      -47.09470000     -32.54650000     -69.51840000
C      -48.36880000     -32.87770000     -69.08050000
S      -48.52160000     -32.28790000     -73.20140000
S      -49.59420000     -32.98080000     -70.29990000
H      -48.55780000     -32.98840000     -67.98920000
