40
Properties=species:S:1:pos:R:3 #=T CELL(abcABC):=T 1.889726e+02=T 90.00000=T Traj:=T positionsangstrom=T Step:=T 0=T Bead:=T pbc="F F F"
C      -45.96400000     -31.63480000     -74.98100000
C      -45.54390000     -30.89520000     -73.88060000
C      -46.40010000     -30.70050000     -72.73620000
C      -47.66590000     -31.39700000     -72.72450000
C      -48.11860000     -32.11300000     -73.85200000
C      -47.31040000     -32.22900000     -74.94670000
H      -45.37380000     -31.79060000     -75.87440000
H      -46.06580000     -30.20820000     -71.85450000
H      -49.12570000     -32.51830000     -73.73290000
H      -47.74460000     -32.69330000     -75.82530000
C      -48.57170000     -31.26600000     -71.54120000
H      -49.61920000     -31.22490000     -71.91030000
H      -48.50470000     -30.29980000     -71.00680000
C      -44.19510000     -30.25260000     -73.84970000
H      -43.94140000     -29.88540000     -74.79160000
H      -44.11400000     -29.38650000     -73.14480000
S      -48.78150000     -32.52850000     -70.22050000
S      -42.80400000     -31.44550000     -73.56170000
C      -47.27240000     -32.35130000     -69.11460000
H      -47.37690000     -31.38140000     -68.80640000
H      -47.43210000     -32.94650000     -68.25370000
C      -42.99750000     -32.39360000     -72.07830000
H      -43.57960000     -31.77940000     -71.29060000
H      -42.00680000     -32.63270000     -71.73190000
C      -43.80860000     -33.69910000     -72.36800000
H      -44.85580000     -33.37610000     -72.59690000
H      -43.41320000     -34.11310000     -73.33130000
C      -45.98320000     -32.83430000     -69.73530000
H      -45.21100000     -32.14500000     -69.40280000
H      -46.06230000     -32.67670000     -70.76980000
C      -45.50860000     -34.24120000     -69.39450000
C      -45.94620000     -34.96990000     -68.28380000
C      -44.50460000     -34.98900000     -70.11630000
H      -46.68630000     -34.66660000     -67.54810000
C      -44.05490000     -36.06840000     -69.35920000
C      -43.72550000     -34.79130000     -71.29670000
C      -42.74760000     -35.79030000     -71.45870000
S      -44.90890000     -36.42920000     -67.88830000
S      -42.70160000     -36.88330000     -70.06560000
H      -42.00150000     -35.88690000     -72.24490000
