40
Properties=species:S:1:pos:R:3 #=T CELL(abcABC):=T 1.889726e+02=T 90.00000=T Traj:=T positionsangstrom=T Step:=T 0=T Bead:=T pbc="F F F"
C      -45.62130000     -31.89340000     -74.64460000
C      -45.39040000     -30.93700000     -73.58350000
C      -46.29820000     -30.65390000     -72.60780000
C      -47.47720000     -31.39450000     -72.57310000
C      -47.70850000     -32.45300000     -73.53300000
C      -46.79260000     -32.70970000     -74.60790000
H      -44.77520000     -32.03800000     -75.29200000
H      -45.99780000     -29.90820000     -71.83170000
H      -48.59600000     -33.05130000     -73.35360000
H      -47.02070000     -33.39110000     -75.45430000
C      -48.50720000     -31.21110000     -71.58510000
H      -49.52890000     -31.15920000     -72.00520000
H      -48.40810000     -30.19620000     -71.12350000
C      -44.14120000     -30.14300000     -73.58070000
H      -43.97730000     -29.61060000     -74.52070000
H      -44.14480000     -29.40940000     -72.81190000
S      -48.46460000     -32.60220000     -70.38400000
S      -42.54170000     -31.15280000     -73.19600000
C      -47.08240000     -32.05050000     -69.28640000
H      -47.09700000     -30.91650000     -69.30180000
H      -47.33020000     -32.33180000     -68.25160000
C      -42.96720000     -32.41480000     -71.96820000
H      -43.52580000     -31.85930000     -71.18290000
H      -42.11020000     -32.86530000     -71.55140000
C      -43.83640000     -33.63040000     -72.37340000
H      -44.89540000     -33.41150000     -72.56350000
H      -43.55040000     -34.01010000     -73.35020000
C      -45.72750000     -32.51830000     -69.80720000
H      -44.85210000     -31.95240000     -69.51110000
H      -45.77200000     -32.49760000     -70.86860000
C      -45.37720000     -34.00110000     -69.31510000
C      -45.88620000     -34.68750000     -68.21620000
C      -44.48830000     -34.88170000     -70.10230000
H      -46.74010000     -34.45980000     -67.54780000
C      -44.44670000     -36.16710000     -69.55050000
C      -43.88150000     -34.81640000     -71.40180000
C      -43.20580000     -35.93860000     -71.75590000
S      -45.34590000     -36.37580000     -68.14360000
S      -43.46700000     -37.20880000     -70.49970000
H      -42.63520000     -36.21490000     -72.69040000
