40
Properties=species:S:1:pos:R:3 #=T CELL(abcABC):=T 1.889726e+02=T 90.00000=T Traj:=T positionsangstrom=T Step:=T 0=T Bead:=T pbc="F F F"
C      -45.43300000     -31.88520000     -74.49570000
C      -45.35040000     -30.86060000     -73.50050000
C      -46.34710000     -30.60180000     -72.63120000
C      -47.49310000     -31.51050000     -72.61670000
C      -47.59530000     -32.49580000     -73.61350000
C      -46.61700000     -32.66010000     -74.56400000
H      -44.60980000     -31.90350000     -75.20890000
H      -46.34840000     -29.81280000     -71.81370000
H      -48.49910000     -33.09650000     -73.71520000
H      -46.72450000     -33.55890000     -75.19490000
C      -48.58460000     -31.41330000     -71.55620000
H      -49.49670000     -31.75100000     -72.07560000
H      -48.62970000     -30.40920000     -71.21210000
C      -43.98330000     -30.18650000     -73.32550000
H      -43.86920000     -29.53890000     -74.15680000
H      -44.06890000     -29.46300000     -72.43250000
S      -48.44190000     -32.52570000     -70.08420000
S      -42.48770000     -31.19850000     -73.23350000
C      -46.88320000     -31.88690000     -69.24860000
H      -46.95110000     -30.82720000     -69.37420000
H      -47.00050000     -32.10920000     -68.15710000
C      -42.97950000     -32.52200000     -71.89170000
H      -43.46660000     -32.00080000     -71.06020000
H      -42.05980000     -33.02320000     -71.49450000
C      -43.96590000     -33.66870000     -72.49710000
H      -45.02530000     -33.39050000     -72.60070000
H      -43.52220000     -34.00450000     -73.45660000
C      -45.59860000     -32.53590000     -69.73150000
H      -44.80380000     -31.94910000     -69.19720000
H      -45.44780000     -32.22570000     -70.73070000
C      -45.42350000     -33.95520000     -69.49360000
C      -45.85180000     -34.56970000     -68.33320000
C      -44.73620000     -34.91860000     -70.36710000
H      -46.33470000     -34.08830000     -67.45090000
C      -44.62690000     -36.17340000     -69.72700000
C      -43.96180000     -34.80500000     -71.57260000
C      -43.33830000     -35.99350000     -71.81900000
S      -45.35000000     -36.26330000     -68.09730000
S      -43.60470000     -37.29550000     -70.66030000
H      -42.82160000     -36.25220000     -72.72310000
