40
Properties=species:S:1:pos:R:3 #=T CELL(abcABC):=T 1.889726e+02=T 90.00000=T Traj:=T positionsangstrom=T Step:=T 0=T Bead:=T pbc="F F F"
C      -45.56980000     -31.51950000     -74.68300000
C      -45.28540000     -30.95160000     -73.40900000
C      -46.31870000     -30.96560000     -72.43470000
C      -47.53380000     -31.55890000     -72.62480000
C      -47.77530000     -32.15620000     -73.85720000
C      -46.78930000     -32.15490000     -74.85110000
H      -44.94820000     -31.50050000     -75.51510000
H      -46.07460000     -30.40860000     -71.58220000
H      -48.73720000     -32.60860000     -74.09160000
H      -46.99620000     -32.54890000     -75.85900000
C      -48.59270000     -31.48300000     -71.55570000
H      -49.52360000     -31.93350000     -71.94210000
H      -48.71360000     -30.43120000     -71.20360000
C      -43.99100000     -30.31110000     -72.97390000
H      -43.74740000     -29.48170000     -73.60760000
H      -43.96690000     -29.85760000     -71.96750000
S      -48.08970000     -32.55910000     -70.02960000
S      -42.48890000     -31.37850000     -73.16440000
C      -46.60480000     -31.63640000     -69.34410000
H      -46.62370000     -30.61800000     -69.64840000
H      -46.64820000     -31.76480000     -68.30140000
C      -42.83080000     -32.72730000     -71.87210000
H      -43.15110000     -32.34790000     -70.91070000
H      -41.96480000     -33.29450000     -71.61450000
C      -43.78740000     -33.77640000     -72.51230000
H      -44.74450000     -33.32320000     -72.81900000
H      -43.30070000     -34.14580000     -73.40840000
C      -45.35710000     -32.34900000     -69.79260000
H      -44.44210000     -31.97430000     -69.30960000
H      -45.21060000     -32.15550000     -70.81530000
C      -45.46120000     -33.89170000     -69.46440000
C      -45.89680000     -34.44590000     -68.26930000
C      -44.80840000     -34.89260000     -70.29850000
H      -46.48980000     -33.89340000     -67.59050000
C      -44.76570000     -36.19250000     -69.74280000
C      -44.01190000     -34.91430000     -71.56860000
C      -43.47040000     -36.16360000     -71.83510000
S      -45.53540000     -36.16070000     -68.15630000
S      -43.78450000     -37.41080000     -70.65670000
H      -42.97810000     -36.50530000     -72.79840000
