40
Properties=species:S:1:pos:R:3 #=T CELL(abcABC):=T 1.889726e+02=T 90.00000=T Traj:=T positionsangstrom=T Step:=T 0=T Bead:=T pbc="F F F"
C      -44.32880000     -31.60600000     -69.73480000
C      -44.70100000     -31.09140000     -70.96080000
C      -46.01990000     -31.36190000     -71.33640000
C      -46.97520000     -31.97140000     -70.50910000
C      -46.58020000     -32.34500000     -69.25260000
C      -45.24700000     -32.20890000     -68.89910000
H      -43.29150000     -31.42510000     -69.40240000
H      -46.45830000     -31.01970000     -72.30020000
H      -47.32140000     -32.92630000     -68.73190000
H      -44.88140000     -32.56220000     -67.93500000
C      -48.37910000     -32.24430000     -70.91030000
H      -49.09670000     -31.42850000     -70.67440000
H      -48.69890000     -33.17420000     -70.33560000
C      -43.61620000     -30.46530000     -71.79140000
H      -44.07120000     -29.70910000     -72.46830000
H      -43.00660000     -29.91150000     -71.06710000
S      -48.59230000     -32.46540000     -72.73150000
S      -42.60370000     -31.59070000     -72.75920000
C      -48.23180000     -34.21970000     -73.22910000
H      -48.77700000     -34.88660000     -72.59070000
H      -48.71680000     -34.36530000     -74.28700000
C      -43.81380000     -32.65240000     -73.70020000
H      -43.68410000     -32.42560000     -74.75040000
H      -44.83630000     -32.44780000     -73.46610000
C      -43.41910000     -34.08530000     -73.47200000
H      -44.07700000     -34.65840000     -74.08540000
H      -42.40830000     -34.24870000     -73.82470000
C      -46.72310000     -34.64620000     -73.33920000
H      -46.03220000     -33.95860000     -73.76340000
H      -46.61420000     -35.54730000     -73.91530000
C      -46.19700000     -34.93340000     -71.89240000
C      -47.02370000     -35.39330000     -70.92300000
C      -44.83160000     -34.87330000     -71.40920000
H      -48.07760000     -35.64850000     -71.02170000
C      -44.68540000     -35.15480000     -70.05090000
C      -43.59770000     -34.51700000     -72.06120000
C      -42.56860000     -34.51100000     -71.14930000
S      -46.25960000     -35.70810000     -69.36260000
S      -43.05560000     -34.92460000     -69.47940000
H      -41.50090000     -34.41130000     -71.45390000
