40
Properties=species:S:1:pos:R:3 #=T CELL(abcABC):=T 1.889726e+02=T 90.00000=T Traj:=T positionsangstrom=T Step:=T 0=T Bead:=T pbc="F F F"
C      -42.34480000     -33.20280000     -72.68540000
C      -42.57260000     -34.59210000     -72.39690000
C      -42.77610000     -34.96030000     -71.04380000
C      -42.64380000     -34.01670000     -69.98950000
C      -42.47340000     -32.63340000     -70.30100000
C      -42.32360000     -32.26900000     -71.61580000
H      -41.89600000     -32.98470000     -73.63460000
H      -43.09780000     -36.02050000     -70.95140000
H      -42.44280000     -31.78080000     -69.60830000
H      -42.18970000     -31.22040000     -71.92600000
C      -42.75790000     -34.49200000     -68.60420000
H      -42.56050000     -33.68230000     -67.89700000
H      -42.12420000     -35.36310000     -68.45720000
C      -42.60690000     -35.51240000     -73.62260000
H      -42.43270000     -34.88730000     -74.53560000
H      -41.70440000     -36.21500000     -73.61230000
S      -44.50620000     -35.03060000     -68.12150000
S      -44.16970000     -36.53930000     -73.60430000
C      -45.44170000     -33.53270000     -68.60020000
H      -45.53410000     -32.84430000     -67.80070000
H      -44.93340000     -32.98970000     -69.43290000
C      -45.27170000     -34.92560000     -73.76710000
H      -46.03980000     -35.01350000     -74.48700000
H      -44.68540000     -34.08880000     -74.20590000
C      -45.97720000     -34.45900000     -72.46800000
H      -46.63540000     -35.32620000     -72.21220000
H      -45.28280000     -34.34440000     -71.60330000
C      -46.85990000     -33.86040000     -69.11470000
H      -47.59440000     -33.95190000     -68.26950000
H      -46.89970000     -34.76730000     -69.69910000
C      -47.44880000     -32.70390000     -69.95780000
C      -47.99480000     -31.66790000     -69.28510000
C      -47.14970000     -32.44900000     -71.33270000
H      -48.32100000     -31.72770000     -68.20280000
C      -47.65320000     -31.21000000     -71.75590000
C      -46.65370000     -33.13920000     -72.52140000
C      -46.77410000     -32.44060000     -73.68190000
S      -48.50850000     -30.41450000     -70.35740000
S      -47.43030000     -30.80860000     -73.42110000
H      -46.43510000     -32.73900000     -74.62910000
