40
Properties=species:S:1:pos:R:3 #=T CELL(abcABC):=T 1.889726e+02=T 90.00000=T Traj:=T positionsangstrom=T Step:=T 0=T Bead:=T pbc="F F F"
C      -42.43120000     -33.60260000     -72.64440000
C      -42.68240000     -34.93040000     -72.28620000
C      -42.59110000     -35.28730000     -70.90200000
C      -42.40440000     -34.33700000     -69.91530000
C      -42.26630000     -32.96890000     -70.28120000
C      -42.19730000     -32.59760000     -71.68050000
H      -42.31060000     -33.28610000     -73.69610000
H      -42.67060000     -36.29560000     -70.59230000
H      -42.14490000     -32.23780000     -69.48070000
H      -42.14950000     -31.50180000     -71.81030000
C      -42.65190000     -34.81360000     -68.48260000
H      -42.24350000     -34.08530000     -67.72400000
H      -42.23560000     -35.82050000     -68.32400000
C      -42.89640000     -35.97220000     -73.32150000
H      -42.52540000     -35.64210000     -74.31950000
H      -42.27340000     -36.82350000     -73.06880000
S      -44.49440000     -35.08370000     -68.24790000
S      -44.63220000     -36.56860000     -73.38650000
C      -45.17150000     -33.53610000     -69.00800000
H      -44.97510000     -32.68160000     -68.39170000
H      -44.76180000     -33.21520000     -69.96810000
C      -45.67520000     -35.01740000     -73.72720000
H      -46.49480000     -35.47400000     -74.30750000
H      -45.20930000     -34.33360000     -74.38990000
C      -46.05370000     -34.33280000     -72.40530000
H      -46.79960000     -34.90400000     -71.78940000
H      -45.22720000     -34.22030000     -71.70520000
C      -46.68250000     -33.60300000     -69.21400000
H      -47.19710000     -33.53900000     -68.23520000
H      -46.88270000     -34.49030000     -69.73650000
C      -47.17500000     -32.36680000     -69.96070000
C      -47.67590000     -31.25150000     -69.29220000
C      -47.11000000     -32.14740000     -71.43600000
H      -47.79080000     -31.11870000     -68.25820000
C      -47.65410000     -30.91100000     -71.79120000
C      -46.62400000     -32.94070000     -72.52480000
C      -46.88930000     -32.37850000     -73.75490000
S      -48.21350000     -29.97480000     -70.41860000
S      -47.62030000     -30.73810000     -73.51580000
H      -46.54770000     -32.83010000     -74.69960000
