40
Properties=species:S:1:pos:R:3 #=T CELL(abcABC):=T 1.889726e+02=T 90.00000=T Traj:=T positionsangstrom=T Step:=T 0=T Bead:=T pbc="F F F"
C      -41.84810000     -34.74690000     -72.67520000
C      -42.94800000     -35.45960000     -72.21030000
C      -43.22960000     -35.44630000     -70.85760000
C      -42.37470000     -34.75280000     -69.97050000
C      -41.18990000     -34.19180000     -70.42390000
C      -40.93900000     -34.06840000     -71.79120000
H      -41.67100000     -34.80210000     -73.73010000
H      -44.07950000     -35.99530000     -70.34930000
H      -40.56260000     -33.55790000     -69.84620000
H      -39.99880000     -33.57580000     -72.17040000
C      -42.61370000     -34.61320000     -68.48580000
H      -42.14390000     -33.74170000     -68.14500000
H      -42.29680000     -35.48940000     -67.97850000
C      -43.58750000     -36.39940000     -73.25940000
H      -43.48530000     -36.04930000     -74.25620000
H      -43.12090000     -37.39190000     -73.20850000
S      -44.38650000     -34.43440000     -68.06980000
S      -45.34650000     -36.73050000     -73.14620000
C      -44.98060000     -32.94650000     -69.01190000
H      -44.59160000     -32.03130000     -68.55830000
H      -44.62720000     -33.18400000     -70.02770000
C      -45.94330000     -35.01400000     -73.45370000
H      -46.68530000     -34.99030000     -74.17440000
H      -45.14660000     -34.30940000     -73.77410000
C      -46.43470000     -34.29560000     -72.13100000
H      -47.24100000     -34.87280000     -71.65060000
H      -45.55860000     -34.34520000     -71.43680000
C      -46.61890000     -32.99180000     -69.03300000
H      -47.00160000     -32.88240000     -67.95900000
H      -47.01860000     -33.92180000     -69.27790000
C      -47.14120000     -31.93250000     -69.96860000
C      -47.48860000     -30.65670000     -69.50110000
C      -47.20710000     -31.94040000     -71.47230000
H      -47.63540000     -30.41820000     -68.43520000
C      -47.59490000     -30.70870000     -72.00610000
C      -46.88300000     -32.89650000     -72.43290000
C      -46.99610000     -32.33500000     -73.68440000
S      -48.01820000     -29.53570000     -70.76790000
S      -47.53890000     -30.70260000     -73.71430000
H      -46.77510000     -32.93590000     -74.48960000
