40
Properties=species:S:1:pos:R:3 #=T CELL(abcABC):=T 1.889726e+02=T 90.00000=T Traj:=T positionsangstrom=T Step:=T 0=T Bead:=T pbc="F F F"
C      -44.39090000     -31.34640000     -69.68010000
C      -44.33190000     -31.15800000     -71.08770000
C      -45.53270000     -31.22810000     -71.78220000
C      -46.72800000     -31.50030000     -71.13780000
C      -46.81610000     -31.37860000     -69.73830000
C      -45.63240000     -31.41100000     -69.01410000
H      -43.49080000     -31.46270000     -69.14880000
H      -45.60280000     -31.07480000     -72.84360000
H      -47.78460000     -31.35700000     -69.28160000
H      -45.73750000     -31.54200000     -67.96390000
C      -47.99840000     -31.77350000     -71.88020000
H      -48.54690000     -30.74420000     -71.89090000
H      -48.61560000     -32.42810000     -71.28900000
C      -42.93270000     -30.91800000     -71.60120000
H      -42.89950000     -30.05060000     -72.27870000
H      -42.21140000     -30.58160000     -70.81510000
S      -47.88690000     -32.36920000     -73.58650000
S      -42.04240000     -32.23340000     -72.41650000
C      -48.10430000     -34.16630000     -73.42810000
H      -48.96680000     -34.46570000     -72.69040000
H      -48.56900000     -34.47020000     -74.44240000
C      -43.15880000     -33.09980000     -73.57200000
H      -42.62660000     -33.14380000     -74.50090000
H      -44.02910000     -32.43740000     -73.72400000
C      -43.45670000     -34.53800000     -73.07210000
H      -44.25720000     -35.01360000     -73.60740000
H      -42.53370000     -35.17620000     -73.27630000
C      -46.91470000     -35.08950000     -73.24080000
H      -46.18730000     -34.77650000     -74.02040000
H      -47.18130000     -36.11810000     -73.50450000
C      -46.47580000     -35.18820000     -71.77120000
C      -47.42180000     -35.49900000     -70.79480000
C      -45.20070000     -34.89140000     -71.12710000
H      -48.36600000     -35.93470000     -71.11360000
C      -45.29980000     -35.04160000     -69.72560000
C      -43.83970000     -34.74050000     -71.61880000
C      -42.91840000     -34.74180000     -70.58320000
S      -46.87730000     -35.53600000     -69.15590000
S      -43.69000000     -34.74020000     -69.05650000
H      -41.84960000     -34.73440000     -70.62200000
