40
Properties=species:S:1:pos:R:3 #=T CELL(abcABC):=T 1.889726e+02=T 90.00000=T Traj:=T positionsangstrom=T Step:=T 0=T Bead:=T pbc="F F F"
C      -42.25490000     -34.89540000     -72.54030000
C      -43.13510000     -35.85190000     -72.11780000
C      -43.40280000     -35.99060000     -70.71800000
C      -42.72580000     -35.20320000     -69.72720000
C      -41.85440000     -34.23830000     -70.19330000
C      -41.57180000     -34.16290000     -71.51810000
H      -42.00520000     -34.70010000     -73.64560000
H      -44.07840000     -36.75960000     -70.52700000
H      -41.32090000     -33.57680000     -69.56890000
H      -40.97540000     -33.35700000     -71.86770000
C      -43.08810000     -35.27550000     -68.25250000
H      -42.29500000     -34.87220000     -67.62570000
H      -43.32660000     -36.31160000     -68.06570000
C      -43.83080000     -36.71690000     -73.13310000
H      -43.62690000     -36.28930000     -74.08130000
H      -43.42460000     -37.71840000     -73.07760000
S      -44.60370000     -34.25870000     -67.71500000
S      -45.63850000     -36.87080000     -72.85930000
C      -44.88300000     -32.90720000     -69.02580000
H      -44.32550000     -31.99460000     -68.66840000
H      -44.42080000     -33.22630000     -69.97140000
C      -45.96190000     -35.02240000     -73.27030000
H      -46.83150000     -34.94630000     -73.91920000
H      -45.10110000     -34.75830000     -73.92350000
C      -46.19200000     -34.16690000     -72.08350000
H      -46.82710000     -34.64630000     -71.37670000
H      -45.27680000     -33.97330000     -71.57020000
C      -46.37460000     -32.53780000     -69.19850000
H      -46.50380000     -32.28430000     -68.18340000
H      -46.99550000     -33.36190000     -69.45260000
C      -46.65510000     -31.47290000     -70.19420000
C      -46.84550000     -30.12880000     -69.90830000
C      -46.83720000     -31.70480000     -71.58690000
H      -46.81110000     -29.60790000     -68.99880000
C      -47.26710000     -30.57140000     -72.28070000
C      -46.71660000     -32.82970000     -72.45050000
C      -47.04430000     -32.48600000     -73.78720000
S      -47.35690000     -29.16430000     -71.30250000
S      -47.41100000     -30.79220000     -73.97280000
H      -46.98810000     -33.06560000     -74.68770000
