40
Properties=species:S:1:pos:R:3 #=T CELL(abcABC):=T 1.889726e+02=T 90.00000=T Traj:=T positionsangstrom=T Step:=T 0=T Bead:=T pbc="F F F"
C      -42.17250000     -35.07050000     -72.28360000
C      -43.22650000     -35.92380000     -71.78280000
C      -43.54000000     -35.87250000     -70.41220000
C      -42.92020000     -35.01200000     -69.51010000
C      -41.94920000     -34.13970000     -70.03510000
C      -41.57690000     -34.23820000     -71.37740000
H      -41.84510000     -35.04390000     -73.28770000
H      -44.30860000     -36.55350000     -69.93460000
H      -41.44370000     -33.32750000     -69.49620000
H      -40.76950000     -33.59350000     -71.72550000
C      -43.21070000     -34.96100000     -67.95930000
H      -42.41110000     -34.44920000     -67.43260000
H      -43.21930000     -35.96340000     -67.47000000
C      -43.75170000     -36.89390000     -72.84170000
H      -43.50430000     -36.60170000     -73.84480000
H      -43.33710000     -37.86780000     -72.79240000
S      -44.77060000     -34.11650000     -67.61380000
S      -45.67680000     -37.01360000     -72.96150000
C      -44.95590000     -32.98640000     -69.06570000
H      -44.43380000     -32.04840000     -68.80330000
H      -44.49450000     -33.34760000     -70.01080000
C      -46.25820000     -35.26680000     -73.49090000
H      -47.21770000     -35.51640000     -74.01200000
H      -45.70610000     -34.92920000     -74.32300000
C      -46.27200000     -34.22590000     -72.36310000
H      -46.81300000     -34.55360000     -71.49870000
H      -45.23520000     -34.23270000     -71.99330000
C      -46.37390000     -32.61790000     -69.36410000
H      -46.83300000     -32.46350000     -68.33680000
H      -46.92150000     -33.53420000     -69.74470000
C      -46.52900000     -31.49200000     -70.33090000
C      -46.70710000     -30.19810000     -69.94620000
C      -46.68830000     -31.69810000     -71.75410000
H      -46.87960000     -29.78090000     -68.95560000
C      -46.94140000     -30.53340000     -72.37180000
C      -46.67870000     -32.82150000     -72.73700000
C      -47.02700000     -32.43100000     -73.99840000
S      -47.13960000     -29.14420000     -71.30580000
S      -47.32590000     -30.68490000     -74.12390000
H      -47.20500000     -33.05340000     -74.91330000
