40
Properties=species:S:1:pos:R:3 #=T CELL(abcABC):=T 1.889726e+02=T 90.00000=T Traj:=T positionsangstrom=T Step:=T 0=T Bead:=T pbc="F F F"
C      -42.30770000     -35.04580000     -72.24430000
C      -43.20710000     -36.00710000     -71.73910000
C      -43.52700000     -35.90480000     -70.31510000
C      -42.83950000     -35.08550000     -69.41180000
C      -41.75570000     -34.34680000     -69.97410000
C      -41.51380000     -34.39840000     -71.33220000
H      -42.04930000     -34.92240000     -73.30710000
H      -44.21330000     -36.59100000     -69.77460000
H      -41.02430000     -33.89450000     -69.30510000
H      -40.67790000     -33.87410000     -71.71350000
C      -43.20780000     -35.06500000     -67.97730000
H      -42.40720000     -34.54360000     -67.38600000
H      -43.49360000     -36.00220000     -67.53060000
C      -44.01410000     -36.98340000     -72.64410000
H      -43.63060000     -37.04210000     -73.75010000
H      -43.97300000     -37.91390000     -72.16300000
S      -44.82890000     -34.14240000     -67.76010000
S      -45.80500000     -36.81400000     -72.59080000
C      -44.96650000     -32.66960000     -68.91060000
H      -44.61130000     -31.79600000     -68.35040000
H      -44.37830000     -32.84230000     -69.80970000
C      -45.99540000     -35.16460000     -73.33710000
H      -46.82390000     -35.36970000     -74.03540000
H      -45.10630000     -34.81410000     -73.95230000
C      -46.38260000     -34.21440000     -72.23600000
H      -47.35780000     -34.55540000     -71.75770000
H      -45.58510000     -34.15240000     -71.48930000
C      -46.42780000     -32.62370000     -69.36390000
H      -47.16440000     -32.51770000     -68.61470000
H      -46.69320000     -33.53400000     -69.79560000
C      -46.74190000     -31.51210000     -70.40300000
C      -46.95440000     -30.17910000     -70.10680000
C      -46.82920000     -31.69950000     -71.86490000
H      -46.92010000     -29.72850000     -69.09190000
C      -46.96030000     -30.51000000     -72.55900000
C      -46.68050000     -32.84360000     -72.82390000
C      -46.71180000     -32.42010000     -74.12360000
S      -47.07370000     -29.16990000     -71.53580000
S      -47.11300000     -30.71750000     -74.26900000
H      -46.50040000     -32.97280000     -75.02650000
