40
Properties=species:S:1:pos:R:3 #=T CELL(abcABC):=T 1.889726e+02=T 90.00000=T Traj:=T positionsangstrom=T Step:=T 0=T Bead:=T pbc="F F F"
C      -42.20380000     -35.83200000     -71.82700000
C      -43.24930000     -36.53570000     -71.17420000
C      -43.76130000     -36.02690000     -69.99600000
C      -43.36670000     -34.79420000     -69.49040000
C      -42.43960000     -34.04430000     -70.18510000
C      -41.77740000     -34.60720000     -71.35700000
H      -41.78460000     -36.16120000     -72.73230000
H      -44.59110000     -36.56200000     -69.46610000
H      -42.03990000     -33.14130000     -69.77700000
H      -41.11310000     -33.89890000     -71.84370000
C      -43.80430000     -34.35400000     -68.11100000
H      -43.33310000     -33.43780000     -67.87460000
H      -43.49790000     -35.08030000     -67.37320000
C      -43.99370000     -37.68800000     -71.84910000
H      -43.58910000     -37.88130000     -72.78120000
H      -44.15650000     -38.66120000     -71.25590000
S      -45.66370000     -34.15820000     -68.01980000
S      -45.71760000     -37.00260000     -72.19720000
C      -45.79000000     -32.42570000     -68.81090000
H      -45.67540000     -31.64910000     -67.97220000
H      -44.87840000     -32.27660000     -69.46370000
C      -45.69550000     -35.38890000     -72.94030000
H      -46.25890000     -35.41070000     -73.82460000
H      -44.68080000     -35.20130000     -73.34440000
C      -46.07930000     -34.18540000     -72.03210000
H      -47.09850000     -34.37060000     -71.65240000
H      -45.43970000     -34.27280000     -71.13210000
C      -47.10410000     -32.25070000     -69.52770000
H      -47.76910000     -31.92000000     -68.73050000
H      -47.50230000     -33.16400000     -69.87880000
C      -47.03120000     -31.30160000     -70.69640000
C      -47.46390000     -29.98510000     -70.55350000
C      -46.39100000     -31.51220000     -71.98830000
H      -48.02030000     -29.57570000     -69.68130000
C      -46.37310000     -30.37770000     -72.83290000
C      -46.07580000     -32.76540000     -72.74100000
C      -45.63660000     -32.48250000     -73.99170000
S      -47.14840000     -28.99620000     -72.07370000
S      -45.70380000     -30.76820000     -74.44170000
H      -45.40030000     -33.19320000     -74.76060000
