40
Properties=species:S:1:pos:R:3 #=T CELL(abcABC):=T 1.889726e+02=T 90.00000=T Traj:=T positionsangstrom=T Step:=T 0=T Bead:=T pbc="F F F"
C      -42.58130000     -35.39380000     -71.65460000
C      -43.58820000     -36.10350000     -71.08780000
C      -43.98930000     -35.84250000     -69.76840000
C      -43.38920000     -34.78650000     -69.05240000
C      -42.36320000     -34.03020000     -69.67900000
C      -41.97730000     -34.33070000     -70.98140000
H      -42.33190000     -35.69610000     -72.72380000
H      -44.67660000     -36.42740000     -69.28050000
H      -41.96540000     -33.24130000     -69.06630000
H      -41.29220000     -33.60560000     -71.47040000
C      -43.91560000     -34.44500000     -67.71710000
H      -43.31210000     -33.71170000     -67.19720000
H      -44.06730000     -35.33410000     -67.19120000
C      -44.17460000     -37.26420000     -71.86340000
H      -43.46540000     -37.50830000     -72.73080000
H      -44.08690000     -38.02400000     -71.16430000
S      -45.67480000     -33.82960000     -67.88130000
S      -45.91250000     -37.09050000     -72.47170000
C      -45.77420000     -32.48010000     -69.15690000
H      -45.43210000     -31.59430000     -68.54310000
H      -45.01860000     -32.64590000     -69.98040000
C      -45.93460000     -35.37560000     -73.11280000
H      -46.62380000     -35.29200000     -73.94630000
H      -44.99050000     -35.19370000     -73.62370000
C      -46.26640000     -34.30310000     -72.17220000
H      -47.33090000     -34.33780000     -71.84320000
H      -45.75810000     -34.41750000     -71.21090000
C      -47.15760000     -32.37580000     -69.72330000
H      -47.89400000     -31.92900000     -68.98250000
H      -47.58700000     -33.41900000     -69.98720000
C      -47.02830000     -31.45290000     -70.90060000
C      -47.40470000     -30.11680000     -70.79260000
C      -46.41260000     -31.72370000     -72.13530000
H      -47.92450000     -29.69480000     -69.95840000
C      -46.14560000     -30.61540000     -72.92150000
C      -45.92530000     -32.95660000     -72.79550000
C      -45.39670000     -32.70300000     -74.03100000
S      -46.86020000     -29.17660000     -72.19820000
S      -45.28210000     -30.93700000     -74.38860000
H      -44.94580000     -33.41490000     -74.71130000
