40
Properties=species:S:1:pos:R:3 #=T CELL(abcABC):=T 1.889726e+02=T 90.00000=T Traj:=T positionsangstrom=T Step:=T 0=T Bead:=T pbc="F F F"
C      -42.62410000     -35.21220000     -71.61300000
C      -43.64210000     -36.02990000     -71.12140000
C      -44.18700000     -35.73650000     -69.87150000
C      -43.59400000     -34.73460000     -69.04330000
C      -42.49420000     -34.03400000     -69.53010000
C      -41.94380000     -34.27060000     -70.82790000
H      -42.26610000     -35.51320000     -72.64660000
H      -44.99900000     -36.30340000     -69.53560000
H      -42.08550000     -33.39020000     -68.81480000
H      -41.07490000     -33.65080000     -71.14960000
C      -44.06010000     -34.39710000     -67.67510000
H      -43.37920000     -33.67810000     -67.13310000
H      -44.01720000     -35.23630000     -66.99530000
C      -44.21150000     -37.17410000     -71.93980000
H      -43.65580000     -37.30630000     -72.86800000
H      -44.10570000     -38.04470000     -71.28440000
S      -45.86110000     -33.78370000     -67.51710000
S      -45.98350000     -37.13510000     -72.43230000
C      -45.76460000     -32.47960000     -68.85510000
H      -45.50050000     -31.57090000     -68.35930000
H      -44.96980000     -32.68840000     -69.52770000
C      -46.07880000     -35.60300000     -73.38820000
H      -47.00820000     -35.79580000     -73.93530000
H      -45.23810000     -35.56240000     -74.11080000
C      -46.20450000     -34.38900000     -72.46850000
H      -47.18740000     -34.47100000     -71.94960000
H      -45.57380000     -34.61000000     -71.62320000
C      -47.03750000     -32.34350000     -69.73670000
H      -47.88960000     -32.01000000     -69.22210000
H      -47.23000000     -33.32690000     -70.00310000
C      -46.85310000     -31.43820000     -70.93250000
C      -47.23690000     -30.09750000     -70.88390000
C      -46.26270000     -31.78060000     -72.20830000
H      -47.48000000     -29.57900000     -69.95770000
C      -46.03480000     -30.66760000     -72.95550000
C      -45.86100000     -32.97770000     -72.93560000
C      -45.23650000     -32.67850000     -74.12840000
S      -46.75540000     -29.20320000     -72.32030000
S      -45.17820000     -30.98720000     -74.44770000
H      -44.65520000     -33.38300000     -74.78550000
