40
Properties=species:S:1:pos:R:3 #=T CELL(abcABC):=T 1.889726e+02=T 90.00000=T Traj:=T positionsangstrom=T Step:=T 0=T Bead:=T pbc="F F F"
C      -42.68300000     -35.27460000     -71.40410000
C      -43.68050000     -36.18270000     -70.89600000
C      -44.34050000     -35.88940000     -69.73180000
C      -43.94140000     -34.85110000     -68.88440000
C      -42.86160000     -34.04150000     -69.34890000
C      -42.29240000     -34.20820000     -70.61260000
H      -42.09340000     -35.36840000     -72.28270000
H      -45.00640000     -36.74820000     -69.31940000
H      -42.49070000     -33.26090000     -68.63880000
H      -41.47670000     -33.61410000     -70.90290000
C      -44.55350000     -34.55790000     -67.52080000
H      -43.77430000     -34.18000000     -66.93450000
H      -44.93400000     -35.52400000     -67.11420000
C      -44.16840000     -37.38120000     -71.71910000
H      -43.46610000     -37.64780000     -72.51640000
H      -44.28080000     -38.20500000     -71.05900000
S      -46.01590000     -33.43940000     -67.54680000
S      -45.82590000     -37.27640000     -72.38430000
C      -45.82110000     -32.13400000     -68.85960000
H      -45.67850000     -31.20360000     -68.40850000
H      -44.88480000     -32.41870000     -69.34120000
C      -45.82650000     -35.67490000     -73.29530000
H      -46.55960000     -35.73350000     -74.12220000
H      -44.93350000     -35.55800000     -73.92260000
C      -46.10220000     -34.43020000     -72.45820000
H      -47.02620000     -34.56880000     -71.93400000
H      -45.41930000     -34.28040000     -71.62670000
C      -47.05780000     -32.19530000     -69.88460000
H      -47.87510000     -31.78860000     -69.35260000
H      -47.25830000     -33.26220000     -70.13390000
C      -46.73850000     -31.36920000     -71.07250000
C      -46.88190000     -29.97850000     -70.99340000
C      -46.13890000     -31.85040000     -72.34220000
H      -47.36910000     -29.45810000     -70.21600000
C      -45.66230000     -30.71720000     -72.99740000
C      -45.98490000     -33.05330000     -73.09670000
C      -45.55900000     -32.74120000     -74.39860000
S      -46.24720000     -29.15590000     -72.37870000
S      -45.27010000     -31.05250000     -74.65830000
H      -45.59750000     -33.38840000     -75.23710000
