40
Properties=species:S:1:pos:R:3 #=T CELL(abcABC):=T 1.889726e+02=T 90.00000=T Traj:=T positionsangstrom=T Step:=T 0=T Bead:=T pbc="F F F"
C      -48.87890000     -34.13220000     -71.35010000
C      -48.41950000     -34.02080000     -70.06230000
C      -47.46240000     -34.92730000     -69.54600000
C      -47.14990000     -36.05470000     -70.32580000
C      -47.65550000     -36.22680000     -71.60140000
C      -48.52700000     -35.25030000     -72.20460000
H      -49.58530000     -33.44290000     -71.71780000
H      -46.96370000     -34.77300000     -68.55640000
H      -47.34030000     -37.16020000     -72.09600000
H      -48.79210000     -35.41830000     -73.21970000
C      -46.13700000     -36.97380000     -69.77320000
H      -46.38520000     -38.06820000     -69.79440000
H      -45.84570000     -36.87690000     -68.70990000
C      -48.98000000     -32.86250000     -69.23850000
H      -49.54600000     -32.12560000     -69.82150000
H      -49.63060000     -33.23230000     -68.47270000
S      -44.49290000     -37.02600000     -70.78140000
S      -47.59970000     -31.92860000     -68.36170000
C      -44.21490000     -35.46050000     -71.64280000
H      -43.98270000     -35.65020000     -72.70560000
H      -45.07970000     -34.90160000     -71.71960000
C      -46.52660000     -31.37700000     -69.73720000
H      -46.00560000     -30.54730000     -69.30510000
H      -47.22300000     -30.84810000     -70.50090000
C      -45.59700000     -32.31610000     -70.49740000
H      -44.89520000     -32.83260000     -69.83940000
H      -46.16790000     -33.14440000     -70.97500000
C      -43.16100000     -34.56380000     -71.04470000
H      -42.19320000     -35.14960000     -70.95150000
H      -43.42800000     -34.20090000     -69.99710000
C      -42.74050000     -33.41580000     -71.93230000
C      -41.65870000     -33.45160000     -72.78350000
C      -43.60210000     -32.20020000     -72.13260000
H      -40.80410000     -34.18670000     -72.69360000
C      -43.04620000     -31.40410000     -73.10480000
C      -44.79610000     -31.65980000     -71.58940000
C      -45.13600000     -30.43870000     -72.20290000
S      -41.64750000     -32.02200000     -73.87660000
S      -43.99000000     -29.99470000     -73.48550000
H      -45.71730000     -29.71140000     -71.77250000
