40
Properties=species:S:1:pos:R:3 #=T CELL(abcABC):=T 1.889726e+02=T 90.00000=T Traj:=T positionsangstrom=T Step:=T 0=T Bead:=T pbc="F F F"
C      -42.59130000     -35.86850000     -70.72450000
C      -43.84040000     -36.43280000     -70.34810000
C      -44.57200000     -35.91150000     -69.27670000
C      -44.04980000     -34.81180000     -68.53320000
C      -42.82330000     -34.25020000     -68.87690000
C      -42.09270000     -34.80930000     -69.94870000
H      -42.01990000     -36.35960000     -71.44880000
H      -45.47440000     -36.41290000     -69.00320000
H      -42.46960000     -33.46960000     -68.12150000
H      -41.14190000     -34.48950000     -70.25800000
C      -44.89830000     -34.28910000     -67.37110000
H      -44.26830000     -33.52600000     -66.85070000
H      -45.12360000     -35.06020000     -66.57460000
C      -44.50700000     -37.59210000     -71.17900000
H      -43.72460000     -37.86300000     -71.90110000
H      -44.70160000     -38.39490000     -70.51310000
S      -46.54490000     -33.59410000     -67.96340000
S      -46.06440000     -37.08490000     -72.13000000
C      -45.88710000     -32.27220000     -69.11950000
H      -45.49350000     -31.43850000     -68.56080000
H      -44.98080000     -32.66130000     -69.66570000
C      -45.61590000     -35.54290000     -72.97870000
H      -46.35080000     -35.56450000     -73.78190000
H      -44.59650000     -35.54750000     -73.32220000
C      -45.90170000     -34.19030000     -72.18110000
H      -46.89050000     -34.44100000     -71.81480000
H      -45.26600000     -34.17320000     -71.25150000
C      -46.96060000     -31.80980000     -70.12380000
H      -47.62110000     -31.21110000     -69.58520000
H      -47.58930000     -32.58560000     -70.67210000
C      -46.35730000     -30.94150000     -71.26240000
C      -46.28800000     -29.57170000     -71.31790000
C      -45.97880000     -31.54780000     -72.56350000
H      -46.63600000     -28.85590000     -70.57110000
C      -45.63980000     -30.62710000     -73.54780000
C      -45.69320000     -32.96830000     -73.01750000
C      -45.37060000     -32.92400000     -74.34200000
S      -45.81720000     -28.94000000     -72.93510000
S      -45.40740000     -31.37930000     -75.12270000
H      -45.28530000     -33.82470000     -74.93700000
