40
Properties=species:S:1:pos:R:3 #=T CELL(abcABC):=T 1.889726e+02=T 90.00000=T Traj:=T positionsangstrom=T Step:=T 0=T Bead:=T pbc="F F F"
C      -42.53440000     -36.03760000     -70.55530000
C      -43.88390000     -36.48040000     -70.38780000
C      -44.64710000     -35.92610000     -69.31250000
C      -44.14700000     -34.95300000     -68.46440000
C      -42.74130000     -34.62300000     -68.57570000
C      -41.96920000     -35.11800000     -69.63110000
H      -42.00390000     -36.28600000     -71.49050000
H      -45.74250000     -36.20670000     -69.23320000
H      -42.31610000     -33.83310000     -67.88610000
H      -40.89430000     -34.82740000     -69.77560000
C      -44.92960000     -34.32980000     -67.36550000
H      -44.32770000     -33.73590000     -66.71020000
H      -45.45040000     -35.09850000     -66.82950000
C      -44.46930000     -37.40600000     -71.33040000
H      -43.84330000     -37.77350000     -72.17290000
H      -44.67480000     -38.36370000     -70.83660000
S      -46.43980000     -33.35110000     -67.99700000
S      -46.21120000     -36.83280000     -71.75610000
C      -45.75760000     -32.33120000     -69.35570000
H      -45.12940000     -31.50360000     -69.02080000
H      -45.20800000     -33.04850000     -69.92600000
C      -45.70160000     -35.46260000     -73.01770000
H      -46.35600000     -35.41260000     -73.83830000
H      -44.72280000     -35.81400000     -73.52040000
C      -45.64890000     -34.16050000     -72.25900000
H      -46.44960000     -33.92580000     -71.56780000
H      -44.77990000     -34.06640000     -71.68330000
C      -46.95840000     -31.70590000     -70.10250000
H      -47.46740000     -31.02570000     -69.43120000
H      -47.77560000     -32.49690000     -70.30900000
C      -46.50900000     -31.06430000     -71.45840000
C      -46.55550000     -29.69460000     -71.52510000
C      -46.13620000     -31.66300000     -72.68960000
H      -46.75310000     -29.00260000     -70.71290000
C      -45.81210000     -30.68970000     -73.62580000
C      -45.69440000     -32.97890000     -73.19460000
C      -45.28290000     -32.97380000     -74.50890000
S      -46.02890000     -29.04230000     -73.02380000
S      -45.06640000     -31.29860000     -75.09510000
H      -44.82730000     -33.77240000     -75.05100000
