40
Properties=species:S:1:pos:R:3 #=T CELL(abcABC):=T 1.889726e+02=T 90.00000=T Traj:=T positionsangstrom=T Step:=T 0=T Bead:=T pbc="F F F"
C      -49.58760000     -34.44040000     -71.30300000
C      -48.82590000     -33.92630000     -70.27640000
C      -47.69400000     -34.66370000     -69.89780000
C      -47.34750000     -35.91700000     -70.43760000
C      -48.18410000     -36.49310000     -71.39120000
C      -49.37040000     -35.83880000     -71.75500000
H      -50.50850000     -33.93230000     -71.60720000
H      -47.06720000     -34.25500000     -69.08890000
H      -47.97230000     -37.44350000     -71.79600000
H      -50.06050000     -36.30920000     -72.45860000
C      -46.08500000     -36.60980000     -69.92920000
H      -46.33230000     -37.51430000     -69.32310000
H      -45.60390000     -35.93580000     -69.32200000
C      -48.99640000     -32.53450000     -69.68510000
H      -49.17870000     -31.83010000     -70.51680000
H      -49.84430000     -32.49600000     -69.05140000
S      -44.95620000     -37.18470000     -71.26610000
S      -47.64210000     -31.77900000     -68.69860000
C      -44.55410000     -35.67520000     -72.16680000
H      -44.09050000     -35.81300000     -73.14890000
H      -45.40020000     -35.00310000     -72.31430000
C      -46.52850000     -31.08500000     -69.92830000
H      -46.08340000     -30.22950000     -69.44600000
H      -47.11120000     -30.69160000     -70.79600000
C      -45.30800000     -31.92860000     -70.27820000
H      -44.72920000     -32.14970000     -69.33120000
H      -45.64610000     -32.97880000     -70.59520000
C      -43.51310000     -34.86000000     -71.22520000
H      -42.79100000     -35.45500000     -70.80110000
H      -44.07700000     -34.52470000     -70.32900000
C      -42.82660000     -33.67540000     -71.88210000
C      -41.74350000     -33.77020000     -72.73240000
C      -43.32570000     -32.26510000     -71.93580000
H      -41.22700000     -34.67610000     -73.07870000
C      -42.59220000     -31.43330000     -72.85100000
C      -44.38920000     -31.44950000     -71.33730000
C      -44.44680000     -30.15840000     -71.78390000
S      -41.23200000     -32.28560000     -73.52570000
S      -43.18120000     -29.77350000     -72.95400000
H      -45.30820000     -29.52290000     -71.46790000
