40
Properties=species:S:1:pos:R:3 #=T CELL(abcABC):=T 1.889726e+02=T 90.00000=T Traj:=T positionsangstrom=T Step:=T 0=T Bead:=T pbc="F F F"
C      -42.61420000     -36.34500000     -70.17060000
C      -44.01140000     -36.39140000     -70.20900000
C      -44.71940000     -35.67030000     -69.22710000
C      -44.08230000     -34.85350000     -68.29970000
C      -42.64680000     -34.82100000     -68.30620000
C      -41.97180000     -35.62440000     -69.15490000
H      -42.17740000     -36.76420000     -71.04690000
H      -45.84700000     -35.69080000     -69.10150000
H      -42.25950000     -34.15050000     -67.59490000
H      -40.84770000     -35.51370000     -69.14150000
C      -44.80220000     -33.96060000     -67.26320000
H      -44.07990000     -33.23400000     -66.86700000
H      -45.11010000     -34.54780000     -66.40280000
C      -44.67090000     -37.22980000     -71.33160000
H      -44.00240000     -37.42020000     -72.13540000
H      -44.79830000     -38.23710000     -70.97760000
S      -46.33230000     -33.17020000     -67.95420000
S      -46.37630000     -36.80350000     -71.94720000
C      -45.65880000     -32.21570000     -69.39130000
H      -45.21550000     -31.32050000     -68.88300000
H      -44.93270000     -32.90030000     -69.84600000
C      -46.09020000     -35.45430000     -73.03270000
H      -47.05290000     -35.19960000     -73.50260000
H      -45.55550000     -35.82200000     -73.92020000
C      -45.58370000     -34.23880000     -72.36690000
H      -46.31220000     -34.04120000     -71.55590000
H      -44.59080000     -34.28500000     -71.82550000
C      -46.79270000     -31.69690000     -70.21870000
H      -47.37120000     -30.99210000     -69.58950000
H      -47.44180000     -32.48850000     -70.46170000
C      -46.41340000     -31.08920000     -71.53960000
C      -46.84170000     -29.82510000     -71.73430000
C      -45.84360000     -31.63180000     -72.73810000
H      -47.30440000     -29.11310000     -71.07690000
C      -45.68360000     -30.71120000     -73.72920000
C      -45.50050000     -32.93570000     -73.19580000
C      -44.97200000     -32.98530000     -74.45730000
S      -46.41380000     -29.18410000     -73.29130000
S      -44.78040000     -31.35800000     -75.08570000
H      -44.55410000     -33.78860000     -74.98140000
