40
Properties=species:S:1:pos:R:3 #=T CELL(abcABC):=T 1.889726e+02=T 90.00000=T Traj:=T positionsangstrom=T Step:=T 0=T Bead:=T pbc="F F F"
C      -44.74990000     -36.31300000     -73.87840000
C      -43.94680000     -35.21380000     -73.76990000
C      -43.19710000     -34.98330000     -72.58070000
C      -43.29920000     -35.88140000     -71.51020000
C      -44.22780000     -36.96900000     -71.61150000
C      -44.94290000     -37.17610000     -72.78970000
H      -45.10760000     -36.52340000     -74.80940000
H      -42.54740000     -34.16360000     -72.43320000
H      -44.41930000     -37.61510000     -70.74180000
H      -45.63640000     -37.99450000     -72.99730000
C      -42.43680000     -35.66640000     -70.32100000
H      -41.91010000     -34.73310000     -70.50820000
H      -41.68320000     -36.49440000     -70.09290000
C      -43.66230000     -34.38660000     -74.98280000
H      -42.73890000     -34.64110000     -75.40860000
H      -44.46260000     -34.41870000     -75.76700000
S      -43.44170000     -35.55870000     -68.76090000
S      -43.32350000     -32.47520000     -74.68020000
C      -44.70950000     -34.39640000     -69.33830000
H      -44.90800000     -34.57900000     -70.38630000
H      -45.59350000     -34.60390000     -68.78180000
C      -44.92450000     -31.98590000     -73.86200000
H      -45.81520000     -32.35680000     -74.34740000
H      -45.11620000     -30.90400000     -74.16570000
C      -45.00100000     -32.28070000     -72.35130000
H      -44.90910000     -33.38290000     -72.28300000
H      -44.22360000     -31.82550000     -71.82740000
C      -44.43440000     -32.89390000     -69.10150000
H      -43.67280000     -32.40970000     -69.80800000
H      -44.02040000     -32.67950000     -68.07170000
C      -45.82850000     -32.14950000     -69.15540000
C      -46.54450000     -31.87190000     -67.99980000
C      -46.58570000     -31.84080000     -70.32860000
H      -46.28590000     -31.80850000     -66.92440000
C      -47.90940000     -31.40270000     -70.04320000
C      -46.38320000     -31.86860000     -71.72290000
C      -47.44880000     -31.47780000     -72.51560000
S      -48.11350000     -31.25930000     -68.31910000
S      -48.80030000     -30.91110000     -71.45780000
H      -47.63410000     -31.44030000     -73.55090000
