40
Properties=species:S:1:pos:R:3 #=T CELL(abcABC):=T 1.889726e+02=T 90.00000=T Traj:=T positionsangstrom=T Step:=T 0=T Bead:=T pbc="F F F"
C      -44.99440000     -36.43480000     -73.89410000
C      -43.94830000     -35.44220000     -73.95410000
C      -43.13590000     -35.23550000     -72.85480000
C      -43.30630000     -35.91750000     -71.62340000
C      -44.33850000     -36.83850000     -71.57150000
C      -45.11280000     -37.17790000     -72.73440000
H      -45.66600000     -36.74170000     -74.78610000
H      -42.39030000     -34.39960000     -72.91540000
H      -44.66130000     -37.30690000     -70.63840000
H      -45.88340000     -37.93320000     -72.64820000
C      -42.53180000     -35.49260000     -70.42770000
H      -42.20490000     -34.46990000     -70.66040000
H      -41.63250000     -36.06260000     -70.37590000
C      -43.66440000     -34.60770000     -75.15380000
H      -42.65680000     -34.89070000     -75.52070000
H      -44.37930000     -34.88290000     -75.90870000
S      -43.43060000     -35.58430000     -68.86090000
S      -43.51370000     -32.78860000     -74.82850000
C      -44.64750000     -34.23250000     -69.10110000
H      -45.27190000     -34.47020000     -69.99200000
H      -45.32790000     -34.22130000     -68.21530000
C      -45.17820000     -32.39370000     -74.00480000
H      -45.83150000     -33.21880000     -74.32830000
H      -45.52400000     -31.45580000     -74.38920000
C      -45.07980000     -32.23420000     -72.47940000
H      -44.74750000     -33.15790000     -72.04670000
H      -44.14890000     -31.65140000     -72.21180000
C      -44.27650000     -32.75110000     -69.25090000
H      -43.78980000     -32.46970000     -70.09780000
H      -43.58350000     -32.52900000     -68.43490000
C      -45.64720000     -31.94760000     -69.06900000
C      -46.24810000     -31.53760000     -67.83520000
C      -46.46970000     -31.68330000     -70.22530000
H      -46.01000000     -31.80540000     -66.79180000
C      -47.74310000     -31.15260000     -69.83870000
C      -46.32430000     -31.79450000     -71.73980000
C      -47.52590000     -31.47090000     -72.36300000
S      -47.87940000     -30.94740000     -68.17290000
S      -48.85360000     -31.02130000     -71.24350000
H      -47.74540000     -31.46490000     -73.43920000
