40
Properties=species:S:1:pos:R:3 #=T CELL(abcABC):=T 1.889726e+02=T 90.00000=T Traj:=T positionsangstrom=T Step:=T 0=T Bead:=T pbc="F F F"
C      -44.13350000     -36.62540000     -69.73970000
C      -45.55380000     -36.70720000     -69.95480000
C      -46.36870000     -35.88330000     -69.17740000
C      -45.89130000     -35.03140000     -68.13190000
C      -44.56360000     -34.97120000     -67.85860000
C      -43.67640000     -35.77450000     -68.66990000
H      -43.52720000     -37.30700000     -70.32810000
H      -47.37310000     -35.91920000     -69.37920000
H      -44.14510000     -34.34410000     -67.06880000
H      -42.60420000     -35.80750000     -68.42750000
C      -46.80880000     -34.14810000     -67.39940000
H      -46.17450000     -33.74410000     -66.57220000
H      -47.59360000     -34.74190000     -66.97390000
C      -45.99100000     -37.42780000     -71.18640000
H      -45.22580000     -38.08910000     -71.48900000
H      -46.87060000     -38.06890000     -71.03050000
S      -47.48220000     -32.75300000     -68.33780000
S      -46.59230000     -36.48660000     -72.70540000
C      -46.00010000     -32.03870000     -69.12820000
H      -45.52950000     -31.18650000     -68.66460000
H      -45.22380000     -32.79880000     -68.99930000
C      -45.55430000     -35.00140000     -72.94690000
H      -44.71520000     -35.10690000     -73.70670000
H      -45.10910000     -34.77660000     -71.99940000
C      -46.37780000     -33.74690000     -73.42660000
H      -46.94390000     -34.00960000     -74.40000000
H      -47.21610000     -33.44270000     -72.79710000
C      -46.26920000     -31.87150000     -70.71170000
H      -47.09760000     -31.14450000     -70.86140000
H      -46.52910000     -32.86990000     -71.11570000
C      -45.14960000     -31.32390000     -71.45500000
C      -44.33210000     -30.28100000     -71.03940000
C      -44.88620000     -31.68860000     -72.82750000
H      -44.45210000     -29.77550000     -70.01870000
C      -43.98070000     -30.82560000     -73.39620000
C      -45.43860000     -32.62630000     -73.74790000
C      -44.84130000     -32.50370000     -74.98490000
S      -43.24730000     -29.70050000     -72.33120000
S      -43.61680000     -31.25300000     -75.09820000
H      -44.99240000     -33.14760000     -75.86010000
