40
Properties=species:S:1:pos:R:3 #=T CELL(abcABC):=T 1.889726e+02=T 90.00000=T Traj:=T positionsangstrom=T Step:=T 0=T Bead:=T pbc="F F F"
C      -43.47360000     -36.25570000     -70.19330000
C      -42.83140000     -34.98290000     -69.92000000
C      -42.27350000     -34.23370000     -70.94830000
C      -42.34300000     -34.76340000     -72.23400000
C      -42.83710000     -36.02370000     -72.48750000
C      -43.45960000     -36.75270000     -71.46760000
H      -43.98650000     -36.79870000     -69.36290000
H      -41.74180000     -33.23110000     -70.77370000
H      -42.93860000     -36.45450000     -73.52560000
H      -43.92410000     -37.70360000     -71.64350000
C      -41.95010000     -33.77350000     -73.38080000
H      -41.34830000     -34.44720000     -74.01540000
H      -41.44750000     -32.84330000     -72.93410000
C      -42.72670000     -34.54270000     -68.47540000
H      -43.05520000     -35.38830000     -67.85070000
H      -41.68980000     -34.34880000     -68.11840000
S      -43.33890000     -33.07950000     -74.37240000
S      -43.64330000     -33.03210000     -67.96990000
C      -43.90820000     -31.53410000     -73.35600000
H      -43.01990000     -31.06290000     -73.01060000
H      -44.36510000     -30.90690000     -74.08750000
C      -45.25350000     -33.22070000     -68.94690000
H      -45.72720000     -34.03910000     -68.44300000
H      -44.95250000     -33.58820000     -69.89630000
C      -46.10760000     -31.94470000     -69.01190000
H      -46.46550000     -31.57450000     -68.03310000
H      -45.49310000     -31.17700000     -69.49640000
C      -44.80800000     -31.93780000     -72.13940000
H      -44.78390000     -30.98980000     -71.49950000
H      -44.31350000     -32.74720000     -71.68690000
C      -46.24210000     -32.26990000     -72.34070000
C      -46.77470000     -32.48900000     -73.55360000
C      -47.25630000     -32.47100000     -71.27960000
H      -46.32300000     -32.41990000     -74.55720000
C      -48.52020000     -32.79560000     -71.79200000
C      -47.31740000     -32.25550000     -69.86310000
C      -48.51920000     -32.53210000     -69.27930000
S      -48.49030000     -32.94500000     -73.52820000
S      -49.76400000     -32.96410000     -70.53690000
H      -48.81870000     -32.48410000     -68.22220000
