40
Properties=species:S:1:pos:R:3 #=T CELL(abcABC):=T 1.889726e+02=T 90.00000=T Traj:=T positionsangstrom=T Step:=T 0=T Bead:=T pbc="F F F"
C      -44.19990000     -36.44850000     -69.81200000
C      -45.58000000     -36.42280000     -70.21240000
C      -46.46500000     -35.71920000     -69.43030000
C      -46.05810000     -34.94890000     -68.35450000
C      -44.71820000     -35.01290000     -67.96910000
C      -43.78290000     -35.78590000     -68.63020000
H      -43.60480000     -37.03350000     -70.46610000
H      -47.56080000     -35.58290000     -69.79560000
H      -44.48280000     -34.53000000     -67.00820000
H      -42.74600000     -35.89100000     -68.27360000
C      -47.08720000     -34.13730000     -67.53470000
H      -46.71230000     -33.99110000     -66.52710000
H      -48.05780000     -34.69660000     -67.57270000
C      -46.14990000     -37.40900000     -71.23940000
H      -45.49260000     -38.29580000     -71.51250000
H      -47.10390000     -37.79800000     -70.97990000
S      -47.66990000     -32.49790000     -68.18050000
S      -46.57430000     -36.54850000     -72.88200000
C      -46.25550000     -31.75640000     -69.10240000
H      -46.76120000     -30.86620000     -69.40930000
H      -45.44160000     -31.60670000     -68.41210000
C      -45.26900000     -35.19850000     -73.01160000
H      -44.53860000     -35.57050000     -73.69350000
H      -44.77190000     -34.88760000     -72.04100000
C      -45.98660000     -33.98130000     -73.62380000
H      -46.34150000     -34.34220000     -74.57400000
H      -46.85970000     -33.68890000     -73.01700000
C      -45.89070000     -32.45770000     -70.37120000
H      -46.76980000     -32.89260000     -70.86660000
H      -45.21060000     -33.24210000     -70.16050000
C      -45.10920000     -31.54970000     -71.36440000
C      -44.56910000     -30.36550000     -70.95750000
C      -44.65840000     -31.89430000     -72.71880000
H      -44.57440000     -30.10610000     -69.82710000
C      -43.82460000     -30.90470000     -73.22750000
C      -45.05380000     -32.82080000     -73.78340000
C      -44.38140000     -32.64000000     -74.95480000
S      -43.59470000     -29.54500000     -72.26440000
S      -43.38260000     -31.17670000     -74.94230000
H      -44.55570000     -33.13860000     -75.87440000
