40
Properties=species:S:1:pos:R:3 #=T CELL(abcABC):=T 1.889726e+02=T 90.00000=T Traj:=T positionsangstrom=T Step:=T 0=T Bead:=T pbc="F F F"
C      -45.37880000     -37.51070000     -72.96830000
C      -45.02090000     -36.33220000     -73.64700000
C      -43.90190000     -35.57090000     -73.19430000
C      -43.20270000     -35.95910000     -72.05290000
C      -43.61600000     -37.13440000     -71.38030000
C      -44.73200000     -37.84380000     -71.76070000
H      -46.29670000     -38.04770000     -73.40660000
H      -43.69190000     -34.59190000     -73.61970000
H      -42.82920000     -37.52230000     -70.69410000
H      -45.10060000     -38.71170000     -71.23000000
C      -41.92000000     -35.24440000     -71.66230000
H      -41.66950000     -34.57760000     -72.54610000
H      -41.19290000     -36.03310000     -71.60370000
C      -45.80070000     -35.87250000     -74.86810000
H      -45.20740000     -35.80980000     -75.77800000
H      -46.79360000     -36.48390000     -74.93440000
S      -41.80570000     -34.30100000     -70.12280000
S      -46.43890000     -34.15000000     -74.74500000
C      -43.34510000     -33.32180000     -69.73440000
H      -44.15250000     -33.99170000     -69.60200000
H      -42.99170000     -33.04720000     -68.73760000
C      -47.33450000     -34.07010000     -73.03460000
H      -47.30360000     -35.08900000     -72.64270000
H      -48.33990000     -33.73500000     -73.17740000
C      -46.47260000     -33.21770000     -72.08600000
H      -45.78030000     -34.01170000     -71.72690000
H      -45.66100000     -32.66130000     -72.58260000
C      -43.64550000     -32.17750000     -70.62260000
H      -43.99340000     -32.54110000     -71.60230000
H      -42.65890000     -31.65540000     -70.80710000
C      -44.72550000     -31.27990000     -70.07140000
C      -44.50910000     -30.28410000     -69.12070000
C      -46.18070000     -31.50220000     -70.19450000
H      -43.57170000     -29.87900000     -68.99830000
C      -46.95300000     -30.63220000     -69.40100000
C      -47.01540000     -32.36080000     -71.01200000
C      -48.34510000     -32.03160000     -70.92410000
S      -45.94660000     -29.41690000     -68.53450000
S      -48.60980000     -30.72900000     -69.79070000
H      -49.13320000     -32.56590000     -71.53350000
