40
Properties=species:S:1:pos:R:3 #=T CELL(abcABC):=T 1.889726e+02=T 90.00000=T Traj:=T positionsangstrom=T Step:=T 0=T Bead:=T pbc="F F F"
C      -44.30050000     -36.53280000     -69.86740000
C      -45.69370000     -36.56840000     -70.14000000
C      -46.59920000     -35.85560000     -69.29190000
C      -46.16360000     -34.94630000     -68.28110000
C      -44.74110000     -34.86940000     -68.13830000
C      -43.81230000     -35.63320000     -68.91010000
H      -43.62130000     -37.01740000     -70.54150000
H      -47.66380000     -35.81030000     -69.67820000
H      -44.38490000     -34.25900000     -67.24100000
H      -42.75610000     -35.50920000     -68.77080000
C      -47.12590000     -34.13160000     -67.49260000
H      -46.67920000     -33.80200000     -66.55580000
H      -48.06830000     -34.69080000     -67.37920000
C      -46.20530000     -37.49360000     -71.15320000
H      -45.49260000     -38.31390000     -71.38820000
H      -47.08030000     -38.02200000     -70.75810000
S      -47.81810000     -32.70450000     -68.51740000
S      -46.68860000     -36.51780000     -72.65360000
C      -46.25950000     -31.84050000     -69.12000000
H      -46.51460000     -30.74580000     -68.97090000
H      -45.47490000     -32.26980000     -68.51700000
C      -45.22480000     -35.35020000     -72.88930000
H      -44.50710000     -35.78580000     -73.59600000
H      -44.79600000     -35.16010000     -71.90850000
C      -45.72070000     -34.04140000     -73.53680000
H      -46.06310000     -34.22760000     -74.55130000
H      -46.65510000     -33.72490000     -72.99600000
C      -46.06370000     -32.37140000     -70.61980000
H      -47.11320000     -32.19160000     -71.03560000
H      -45.84670000     -33.44470000     -70.68990000
C      -45.03770000     -31.50250000     -71.39190000
C      -44.53770000     -30.32120000     -70.90900000
C      -44.61680000     -31.75740000     -72.77110000
H      -44.87750000     -29.71670000     -70.01050000
C      -43.82630000     -30.71870000     -73.31150000
C      -44.75460000     -32.87010000     -73.67370000
C      -44.12750000     -32.67030000     -74.86360000
S      -43.54650000     -29.41490000     -72.16540000
S      -43.25280000     -31.12710000     -74.90140000
H      -44.02720000     -33.33870000     -75.67090000
