40
Properties=species:S:1:pos:R:3 #=T CELL(abcABC):=T 1.889726e+02=T 90.00000=T Traj:=T positionsangstrom=T Step:=T 0=T Bead:=T pbc="F F F"
C      -45.38960000     -37.58650000     -72.54330000
C      -45.21320000     -36.50050000     -73.46050000
C      -44.15810000     -35.59800000     -73.35560000
C      -43.19350000     -35.76730000     -72.34420000
C      -43.38690000     -36.83500000     -71.49550000
C      -44.38730000     -37.76440000     -71.59920000
H      -46.29310000     -38.18640000     -72.53090000
H      -44.25760000     -34.63790000     -73.90130000
H      -42.80750000     -36.94160000     -70.62290000
H      -44.48430000     -38.50930000     -70.75300000
C      -42.09380000     -34.82290000     -72.12430000
H      -42.12020000     -33.90980000     -72.78200000
H      -41.25020000     -35.38170000     -72.39090000
C      -46.26790000     -36.30510000     -74.45910000
H      -46.02870000     -36.69280000     -75.54430000
H      -47.20750000     -36.87210000     -74.26920000
S      -42.00810000     -34.35610000     -70.33620000
S      -46.91010000     -34.55890000     -74.59190000
C      -43.62310000     -33.42530000     -70.10770000
H      -44.41950000     -33.94940000     -70.61790000
H      -43.79260000     -33.51160000     -69.02610000
C      -47.36430000     -34.11590000     -72.87450000
H      -47.41110000     -34.99030000     -72.28990000
H      -48.31500000     -33.74550000     -72.92420000
C      -46.33530000     -33.06890000     -72.29540000
H      -45.36270000     -33.61410000     -72.14790000
H      -46.18810000     -32.24640000     -73.03390000
C      -43.47600000     -32.02930000     -70.67200000
H      -43.56760000     -32.14430000     -71.76130000
H      -42.45410000     -31.56960000     -70.41700000
C      -44.53490000     -31.13000000     -70.04900000
C      -44.26590000     -30.14470000     -69.17170000
C      -45.98110000     -31.32000000     -70.25840000
H      -43.24320000     -29.80660000     -68.97530000
C      -46.71620000     -30.43040000     -69.47610000
C      -46.79830000     -32.19800000     -71.06110000
C      -48.15860000     -32.05840000     -70.83240000
S      -45.71790000     -29.36740000     -68.52740000
S      -48.39410000     -30.83130000     -69.57040000
H      -48.87890000     -32.64900000     -71.25160000
