40
Properties=species:S:1:pos:R:3 #=T CELL(abcABC):=T 1.889726e+02=T 90.00000=T Traj:=T positionsangstrom=T Step:=T 0=T Bead:=T pbc="F F F"
C      -45.34780000     -37.69410000     -72.34190000
C      -45.28670000     -36.67940000     -73.30890000
C      -44.29060000     -35.72380000     -73.28470000
C      -43.27030000     -35.83030000     -72.37830000
C      -43.29820000     -36.94330000     -71.47460000
C      -44.31050000     -37.88490000     -71.46850000
H      -46.16970000     -38.47240000     -72.46100000
H      -44.21790000     -35.00450000     -74.06130000
H      -42.40780000     -37.20080000     -70.86090000
H      -44.34880000     -38.76840000     -70.82390000
C      -42.17440000     -34.73710000     -72.30050000
H      -42.46060000     -33.85190000     -72.89800000
H      -41.23180000     -35.11690000     -72.76310000
C      -46.47180000     -36.48620000     -74.23790000
H      -46.28650000     -36.85420000     -75.17420000
H      -47.22140000     -37.14010000     -73.84110000
S      -41.83570000     -34.21130000     -70.55140000
S      -47.13870000     -34.76810000     -74.52290000
C      -43.36320000     -33.30380000     -70.23660000
H      -44.31610000     -33.76560000     -70.37750000
H      -43.36660000     -33.18150000     -69.12580000
C      -47.44420000     -34.01420000     -72.80150000
H      -47.39030000     -34.82230000     -72.02580000
H      -48.49480000     -33.62040000     -72.88570000
C      -46.39820000     -32.95660000     -72.34590000
H      -45.56180000     -33.60800000     -72.01290000
H      -46.11530000     -32.35560000     -73.22640000
C      -43.44920000     -31.87240000     -70.84920000
H      -43.64990000     -31.93440000     -71.85860000
H      -42.48680000     -31.38950000     -70.75140000
C      -44.48990000     -30.99650000     -70.20120000
C      -44.22800000     -30.01050000     -69.32140000
C      -45.92420000     -31.39390000     -70.30990000
H      -43.28480000     -29.80190000     -68.93490000
C      -46.62720000     -30.59640000     -69.41590000
C      -46.85450000     -32.12830000     -71.13690000
C      -48.18800000     -31.84900000     -70.81650000
S      -45.64590000     -29.47470000     -68.41520000
S      -48.38330000     -30.66470000     -69.51570000
H      -49.04670000     -32.29910000     -71.20870000
