40
Properties=species:S:1:pos:R:3 #=T CELL(abcABC):=T 1.889726e+02=T 90.00000=T Traj:=T positionsangstrom=T Step:=T 0=T Bead:=T pbc="F F F"
C      -44.31840000     -36.26800000     -69.70320000
C      -45.67110000     -36.25780000     -70.13630000
C      -46.56250000     -35.45170000     -69.41510000
C      -46.18250000     -34.60260000     -68.36640000
C      -44.89350000     -34.73430000     -67.93200000
C      -43.93970000     -35.53840000     -68.58340000
H      -43.46800000     -36.75540000     -70.19260000
H      -47.65070000     -35.44660000     -69.70010000
H      -44.62790000     -34.04740000     -67.16240000
H      -42.87940000     -35.35920000     -68.42250000
C      -47.18760000     -33.68330000     -67.72040000
H      -46.62810000     -33.06100000     -66.94430000
H      -47.89820000     -34.35110000     -67.16260000
C      -46.06670000     -37.18180000     -71.33070000
H      -45.09200000     -37.69310000     -71.62400000
H      -46.78120000     -37.93210000     -71.03510000
S      -48.34000000     -32.60800000     -68.72500000
S      -46.84260000     -36.33620000     -72.79470000
C      -47.02550000     -31.50680000     -69.57540000
H      -47.49200000     -30.61420000     -69.90530000
H      -46.43110000     -31.26970000     -68.72550000
C      -45.41440000     -35.17170000     -73.23660000
H      -44.69140000     -35.71600000     -73.87590000
H      -44.93630000     -34.96660000     -72.26670000
C      -45.93600000     -33.85240000     -73.97580000
H      -46.25510000     -34.11830000     -75.02600000
H      -46.79800000     -33.46420000     -73.45280000
C      -46.35790000     -32.25560000     -70.78160000
H      -47.11360000     -32.42810000     -71.54410000
H      -45.96230000     -33.31850000     -70.57760000
C      -45.18810000     -31.62960000     -71.43670000
C      -44.46690000     -30.61770000     -70.90540000
C      -44.56930000     -31.99100000     -72.70960000
H      -44.63690000     -30.03230000     -70.01150000
C      -43.44710000     -31.24380000     -73.00730000
C      -44.85270000     -32.84940000     -73.86850000
C      -43.96300000     -32.67700000     -74.84390000
S      -42.92610000     -30.16120000     -71.63420000
S      -42.68490000     -31.52750000     -74.54780000
H      -43.90390000     -33.20320000     -75.78450000
