40
Properties=species:S:1:pos:R:3 #=T CELL(abcABC):=T 1.889726e+02=T 90.00000=T Traj:=T positionsangstrom=T Step:=T 0=T Bead:=T pbc="F F F"
C      -44.45340000     -36.13500000     -69.64810000
C      -45.77720000     -36.19580000     -70.02970000
C      -46.68100000     -35.32340000     -69.42300000
C      -46.31910000     -34.44760000     -68.43520000
C      -44.98510000     -34.44270000     -68.02760000
C      -44.01960000     -35.31720000     -68.58740000
H      -43.82610000     -36.88770000     -70.10030000
H      -47.80650000     -35.28870000     -69.69750000
H      -44.71320000     -33.92530000     -67.11270000
H      -42.98290000     -35.31050000     -68.23460000
C      -47.26700000     -33.56000000     -67.71050000
H      -46.74940000     -32.92270000     -67.03140000
H      -48.03420000     -34.05510000     -67.13700000
C      -46.16640000     -37.17540000     -71.12800000
H      -45.35250000     -37.86800000     -71.36430000
H      -46.99160000     -37.78010000     -70.81820000
S      -48.25190000     -32.54600000     -68.93500000
S      -46.83660000     -36.31270000     -72.62210000
C      -47.14800000     -31.50410000     -69.92500000
H      -47.75690000     -30.76970000     -70.43860000
H      -46.41360000     -30.92750000     -69.29360000
C      -45.46220000     -35.15470000     -72.95900000
H      -44.58840000     -35.63920000     -73.44660000
H      -45.02010000     -34.87750000     -71.99730000
C      -45.91190000     -33.97030000     -73.83830000
H      -46.11100000     -34.41920000     -74.80370000
H      -46.77170000     -33.56180000     -73.33630000
C      -46.31160000     -32.40300000     -70.98420000
H      -46.90280000     -32.71040000     -71.85600000
H      -46.07820000     -33.27460000     -70.44980000
C      -44.99030000     -31.79820000     -71.42950000
C      -44.21640000     -30.91020000     -70.69410000
C      -44.47840000     -31.98640000     -72.79590000
H      -44.34310000     -30.56080000     -69.66140000
C      -43.30510000     -31.28280000     -73.01980000
C      -44.85890000     -32.85050000     -73.94280000
C      -43.96320000     -32.71300000     -74.96200000
S      -42.89370000     -30.30670000     -71.62630000
S      -42.67270000     -31.58760000     -74.53700000
H      -43.97140000     -33.25130000     -75.89660000
