40
Properties=species:S:1:pos:R:3 #=T CELL(abcABC):=T 1.889726e+02=T 90.00000=T Traj:=T positionsangstrom=T Step:=T 0=T Bead:=T pbc="F F F"
C      -43.22730000     -36.24680000     -70.13740000
C      -42.81500000     -34.91420000     -69.85260000
C      -42.42520000     -34.07150000     -70.91440000
C      -42.44600000     -34.54950000     -72.21060000
C      -42.90810000     -35.84910000     -72.51450000
C      -43.36550000     -36.64370000     -71.49530000
H      -43.70290000     -36.85150000     -69.36470000
H      -42.23040000     -33.02710000     -70.75240000
H      -42.91610000     -36.22910000     -73.51620000
H      -43.77640000     -37.58080000     -71.67310000
C      -41.95590000     -33.65320000     -73.29080000
H      -41.32660000     -34.15960000     -73.99470000
H      -41.39990000     -32.75670000     -73.00520000
C      -42.79550000     -34.51120000     -68.39240000
H      -43.24100000     -35.26300000     -67.77040000
H      -41.79760000     -34.35980000     -67.98240000
S      -43.37860000     -33.19940000     -74.32370000
S      -43.65350000     -32.90560000     -67.99090000
C      -43.98220000     -31.66430000     -73.46910000
H      -43.10380000     -31.02180000     -73.18070000
H      -44.49830000     -31.03120000     -74.21620000
C      -45.24190000     -33.35810000     -68.74380000
H      -45.73520000     -33.98110000     -68.01270000
H      -45.22990000     -33.87840000     -69.75840000
C      -46.02470000     -32.10800000     -68.96340000
H      -46.26470000     -31.67490000     -67.96180000
H      -45.36500000     -31.35360000     -69.43720000
C      -44.87900000     -31.78480000     -72.20370000
H      -44.91020000     -30.79260000     -71.73430000
H      -44.41170000     -32.33290000     -71.31040000
C      -46.26640000     -32.25100000     -72.41030000
C      -46.81590000     -32.52750000     -73.64340000
C      -47.25440000     -32.32440000     -71.30780000
H      -46.40930000     -32.46470000     -74.63450000
C      -48.48540000     -32.77910000     -71.84330000
C      -47.23960000     -32.30730000     -69.85440000
C      -48.52020000     -32.59050000     -69.35890000
S      -48.50310000     -33.07150000     -73.54860000
S      -49.65820000     -33.11810000     -70.58250000
H      -48.89870000     -32.41340000     -68.38820000
