40
Properties=species:S:1:pos:R:3 #=T CELL(abcABC):=T 1.889726e+02=T 90.00000=T Traj:=T positionsangstrom=T Step:=T 0=T Bead:=T pbc="F F F"
C      -44.58720000     -35.83590000     -69.47540000
C      -45.90910000     -36.02420000     -69.81320000
C      -46.85930000     -35.29510000     -69.18660000
C      -46.54820000     -34.34170000     -68.25640000
C      -45.19060000     -34.07330000     -67.94820000
C      -44.21960000     -34.84080000     -68.55520000
H      -43.86100000     -36.50820000     -70.05170000
H      -47.83090000     -35.57730000     -69.32210000
H      -44.87740000     -33.24820000     -67.32170000
H      -43.16140000     -34.63590000     -68.36390000
C      -47.55990000     -33.38690000     -67.73460000
H      -47.23580000     -32.70690000     -66.94470000
H      -48.40530000     -33.89600000     -67.29360000
C      -46.28550000     -37.10780000     -70.85920000
H      -45.47270000     -37.68780000     -71.07250000
H      -47.07660000     -37.73110000     -70.37770000
S      -48.38770000     -32.48880000     -69.11230000
S      -46.75310000     -36.36670000     -72.42580000
C      -47.01550000     -31.58860000     -69.97230000
H      -47.52830000     -30.67760000     -70.37610000
H      -46.26650000     -31.23410000     -69.21940000
C      -45.27960000     -35.38830000     -72.87050000
H      -44.52920000     -36.08920000     -73.26870000
H      -44.94670000     -34.89900000     -71.93930000
C      -45.62710000     -34.28250000     -73.90820000
H      -45.69960000     -34.76980000     -74.91400000
H      -46.71610000     -34.05330000     -73.78320000
C      -46.24630000     -32.38730000     -71.05750000
H      -46.91820000     -32.61040000     -71.92570000
H      -46.11910000     -33.37370000     -70.56510000
C      -44.88270000     -31.82500000     -71.49820000
C      -44.14440000     -30.89880000     -70.76860000
C      -44.38010000     -32.16720000     -72.84130000
H      -44.31870000     -30.47560000     -69.79850000
C      -43.22120000     -31.40270000     -73.06160000
C      -44.67730000     -33.08380000     -73.99050000
C      -43.86870000     -32.87630000     -75.04330000
S      -42.72830000     -30.45760000     -71.71030000
S      -42.70520000     -31.58660000     -74.74220000
H      -43.77960000     -33.53130000     -75.87450000
