40
Properties=species:S:1:pos:R:3 #=T CELL(abcABC):=T 1.889726e+02=T 90.00000=T Traj:=T positionsangstrom=T Step:=T 0=T Bead:=T pbc="F F F"
C      -45.92250000     -30.85340000     -70.07850000
C      -45.62670000     -30.68950000     -71.40570000
C      -46.37410000     -31.51700000     -72.33870000
C      -47.30260000     -32.40090000     -71.88280000
C      -47.60540000     -32.49210000     -70.51990000
C      -46.90010000     -31.72130000     -69.63580000
H      -45.42260000     -30.26840000     -69.34940000
H      -46.15370000     -31.53820000     -73.38280000
H      -48.21970000     -33.37890000     -70.17000000
H      -47.21870000     -31.80980000     -68.58710000
C      -48.09130000     -33.42640000     -72.89170000
H      -49.00930000     -32.91890000     -73.24110000
H      -48.45790000     -34.23930000     -72.30460000
C      -44.45150000     -29.87410000     -71.85700000
H      -44.49070000     -29.78460000     -72.95610000
H      -44.36370000     -28.91080000     -71.37280000
S      -47.15310000     -33.84920000     -74.45220000
S      -42.83220000     -30.76600000     -71.48910000
C      -46.39060000     -35.53940000     -74.17080000
H      -47.16940000     -36.21120000     -73.70530000
H      -46.01150000     -35.88640000     -75.10930000
C      -42.99280000     -32.23430000     -72.69420000
H      -42.34760000     -32.05240000     -73.49520000
H      -44.00690000     -32.21840000     -72.99600000
C      -42.62970000     -33.67610000     -72.14960000
H      -42.93980000     -34.19310000     -72.97120000
H      -41.62260000     -33.95300000     -71.96780000
C      -45.27250000     -35.33370000     -73.16540000
H      -44.67960000     -34.46140000     -73.46890000
H      -44.56290000     -36.20090000     -73.28420000
C      -45.62180000     -35.19000000     -71.73140000
C      -46.63920000     -35.83130000     -71.05140000
C      -44.70280000     -34.63540000     -70.73970000
H      -47.48310000     -36.34110000     -71.47780000
C      -45.06260000     -34.85470000     -69.39580000
C      -43.40730000     -34.02150000     -70.89390000
C      -42.82710000     -33.71270000     -69.70700000
S      -46.48630000     -35.85190000     -69.31780000
S      -43.88120000     -34.23700000     -68.34040000
H      -41.92330000     -33.19810000     -69.43990000
