40
Properties=species:S:1:pos:R:3 #=T CELL(abcABC):=T 1.889726e+02=T 90.00000=T Traj:=T positionsangstrom=T Step:=T 0=T Bead:=T pbc="F F F"
C      -45.88630000     -31.12320000     -70.02270000
C      -45.61350000     -30.81630000     -71.39100000
C      -46.32950000     -31.62280000     -72.31070000
C      -47.40790000     -32.46090000     -71.94590000
C      -47.66890000     -32.68090000     -70.62180000
C      -46.92790000     -31.95850000     -69.64870000
H      -45.24410000     -30.67570000     -69.19790000
H      -46.20940000     -31.66710000     -73.38660000
H      -48.53070000     -33.28130000     -70.28380000
H      -47.04920000     -32.20160000     -68.59580000
C      -48.27010000     -33.18600000     -72.91550000
H      -49.19520000     -32.63220000     -73.24690000
H      -48.65080000     -34.03230000     -72.34440000
C      -44.49770000     -29.94050000     -71.85540000
H      -44.55570000     -29.57200000     -72.86220000
H      -44.32920000     -29.04150000     -71.19160000
S      -47.52920000     -33.73140000     -74.50940000
S      -42.86530000     -30.86080000     -71.46260000
C      -46.53910000     -35.33710000     -74.11940000
H      -47.23680000     -36.11710000     -73.77190000
H      -46.18940000     -35.66690000     -75.08590000
C      -42.94190000     -32.24220000     -72.63900000
H      -42.39920000     -32.02810000     -73.64130000
H      -43.94270000     -32.56660000     -72.86740000
C      -42.36220000     -33.53420000     -71.98300000
H      -42.29710000     -34.29310000     -72.80250000
H      -41.25280000     -33.40410000     -71.70020000
C      -45.22780000     -35.31010000     -73.21010000
H      -44.60160000     -34.54800000     -73.56740000
H      -44.65180000     -36.23590000     -73.39390000
C      -45.43760000     -35.21240000     -71.73610000
C      -46.42870000     -35.88530000     -71.05790000
C      -44.49280000     -34.64730000     -70.82330000
H      -47.24710000     -36.28410000     -71.59470000
C      -44.89880000     -34.88790000     -69.53490000
C      -43.15170000     -34.05790000     -70.84400000
C      -42.77140000     -33.67470000     -69.61420000
S      -46.52130000     -35.54700000     -69.34880000
S      -43.82120000     -34.34760000     -68.30700000
H      -41.79860000     -33.38660000     -69.27070000
