40
Properties=species:S:1:pos:R:3 #=T CELL(abcABC):=T 1.889726e+02=T 90.00000=T Traj:=T positionsangstrom=T Step:=T 0=T Bead:=T pbc="F F F"
C      -44.98340000     -36.02040000     -68.59720000
C      -46.17000000     -35.99150000     -69.40170000
C      -47.05620000     -34.83810000     -69.26160000
C      -46.84080000     -33.82760000     -68.23580000
C      -45.71740000     -34.00250000     -67.46120000
C      -44.74380000     -35.01840000     -67.69960000
H      -44.19390000     -36.76730000     -68.68120000
H      -47.69580000     -34.64730000     -70.02180000
H      -45.73170000     -33.21770000     -66.63560000
H      -43.76480000     -34.96990000     -67.17690000
C      -47.82020000     -32.73150000     -67.96050000
H      -47.51170000     -31.99230000     -67.22310000
H      -48.75820000     -33.19170000     -67.64580000
C      -46.38750000     -37.08480000     -70.38000000
H      -45.47650000     -37.86510000     -70.49900000
H      -47.31120000     -37.65940000     -70.12050000
S      -48.37180000     -31.92890000     -69.53220000
S      -46.78400000     -36.52710000     -72.09690000
C      -46.79010000     -31.37290000     -70.25400000
H      -46.98000000     -30.29820000     -70.46430000
H      -46.00830000     -31.41580000     -69.45940000
C      -45.28160000     -35.45750000     -72.30580000
H      -44.38860000     -35.98380000     -72.40030000
H      -45.23350000     -34.71690000     -71.50190000
C      -45.41370000     -34.63150000     -73.68270000
H      -45.33660000     -35.32150000     -74.52730000
H      -46.44380000     -34.20590000     -73.68050000
C      -46.31100000     -32.19300000     -71.49620000
H      -46.95950000     -32.10770000     -72.36700000
H      -46.24130000     -33.28550000     -71.44660000
C      -44.90000000     -31.68030000     -71.94960000
C      -44.16520000     -30.65290000     -71.35940000
C      -44.20140000     -32.33410000     -73.07930000
H      -44.44390000     -30.04260000     -70.52770000
C      -43.07380000     -31.59450000     -73.39520000
C      -44.40950000     -33.56270000     -73.82220000
C      -43.38690000     -33.62330000     -74.78030000
S      -42.74620000     -30.24370000     -72.29320000
S      -42.21180000     -32.32710000     -74.78690000
H      -43.20890000     -34.22260000     -75.64760000
