40
Properties=species:S:1:pos:R:3 #=T CELL(abcABC):=T 1.889726e+02=T 90.00000=T Traj:=T positionsangstrom=T Step:=T 0=T Bead:=T pbc="F F F"
C      -45.49800000     -31.36000000     -69.97610000
C      -45.62980000     -30.82880000     -71.22770000
C      -46.70730000     -31.09460000     -72.05860000
C      -47.61440000     -32.06830000     -71.66450000
C      -47.56950000     -32.49160000     -70.32350000
C      -46.57490000     -32.16750000     -69.47410000
H      -44.70270000     -31.15490000     -69.35480000
H      -46.80070000     -30.58550000     -73.00340000
H      -48.38780000     -33.19670000     -70.04750000
H      -46.58500000     -32.64530000     -68.50880000
C      -48.56590000     -32.83800000     -72.63720000
H      -49.33410000     -32.23110000     -72.97830000
H      -49.06700000     -33.67120000     -72.08010000
C      -44.44610000     -30.03060000     -71.76260000
H      -44.63460000     -29.72150000     -72.75870000
H      -44.30030000     -29.18620000     -71.10960000
S      -47.71900000     -33.66400000     -74.17090000
S      -42.75910000     -30.92230000     -71.75340000
C      -47.23340000     -35.28920000     -73.60970000
H      -47.83890000     -35.66980000     -72.83820000
H      -47.44810000     -35.90360000     -74.46880000
C      -43.16460000     -32.24970000     -72.97090000
H      -42.67880000     -32.05620000     -73.93790000
H      -44.18570000     -32.24110000     -73.00090000
C      -42.76730000     -33.72970000     -72.59990000
H      -43.22120000     -34.34720000     -73.36830000
H      -41.76590000     -33.95070000     -72.69140000
C      -45.75210000     -35.21680000     -73.13780000
H      -45.12700000     -34.40490000     -73.43640000
H      -45.34000000     -36.10330000     -73.69890000
C      -45.55690000     -35.37250000     -71.72180000
C      -46.44940000     -36.06220000     -70.98480000
C      -44.48790000     -34.73890000     -70.91940000
H      -47.39080000     -36.46670000     -71.36360000
C      -44.69750000     -34.88780000     -69.57590000
C      -43.25300000     -34.04180000     -71.22760000
C      -42.48380000     -33.77740000     -70.11660000
S      -46.16330000     -35.80000000     -69.17420000
S      -43.33790000     -34.25500000     -68.63910000
H      -41.63440000     -33.14850000     -70.05840000
