40
Properties=species:S:1:pos:R:3 #=T CELL(abcABC):=T 1.889726e+02=T 90.00000=T Traj:=T positionsangstrom=T Step:=T 0=T Bead:=T pbc="F F F"
C      -45.43810000     -30.95120000     -69.86720000
C      -45.46240000     -30.69290000     -71.24630000
C      -46.54710000     -31.20270000     -71.98870000
C      -47.36890000     -32.19000000     -71.44910000
C      -47.30540000     -32.49100000     -70.11170000
C      -46.29500000     -31.88150000     -69.33110000
H      -44.41420000     -30.74650000     -69.32350000
H      -46.57170000     -31.02590000     -73.06430000
H      -47.80790000     -33.34190000     -69.67410000
H      -46.19550000     -32.32600000     -68.30550000
C      -48.38220000     -32.86870000     -72.33120000
H      -49.36390000     -32.31540000     -72.36300000
H      -48.72930000     -33.70940000     -71.81260000
C      -44.35040000     -29.96410000     -71.88420000
H      -44.76030000     -29.47400000     -72.73890000
H      -43.97430000     -29.16080000     -71.26280000
S      -47.86040000     -33.47500000     -74.07270000
S      -42.90040000     -30.92220000     -72.47470000
C      -47.34200000     -35.24980000     -73.52240000
H      -48.20930000     -35.46170000     -72.96470000
H      -47.30200000     -35.80500000     -74.40870000
C      -43.61920000     -32.39360000     -73.31450000
H      -43.35890000     -32.31330000     -74.27460000
H      -44.68010000     -32.35490000     -73.32120000
C      -43.04010000     -33.67020000     -72.75290000
H      -43.15030000     -34.45870000     -73.41230000
H      -41.97940000     -33.43550000     -72.75610000
C      -45.94240000     -35.26000000     -72.96580000
H      -45.48740000     -34.31250000     -73.29270000
H      -45.47910000     -36.09460000     -73.38330000
C      -45.79120000     -35.27560000     -71.48610000
C      -46.68090000     -35.89740000     -70.61430000
C      -44.60020000     -34.79520000     -70.84990000
H      -47.53460000     -36.49230000     -70.83100000
C      -44.54530000     -35.11200000     -69.47320000
C      -43.42110000     -34.11790000     -71.31900000
C      -42.49820000     -33.87980000     -70.28360000
S      -46.01460000     -35.96900000     -68.96260000
S      -43.13670000     -34.41790000     -68.70920000
H      -41.45490000     -33.50930000     -70.46320000
