40
Properties=species:S:1:pos:R:3 #=T CELL(abcABC):=T 1.889726e+02=T 90.00000=T Traj:=T positionsangstrom=T Step:=T 0=T Bead:=T pbc="F F F"
C      -44.91720000     -31.14160000     -70.14750000
C      -45.31490000     -30.86320000     -71.48860000
C      -46.51550000     -31.46460000     -71.94810000
C      -47.29290000     -32.29470000     -71.13940000
C      -46.93020000     -32.50430000     -69.78960000
C      -45.72220000     -31.93560000     -69.34620000
H      -44.03820000     -30.76820000     -69.74780000
H      -46.80300000     -31.24670000     -72.98590000
H      -47.46000000     -33.15830000     -69.17040000
H      -45.50910000     -32.19230000     -68.30810000
C      -48.45920000     -33.06540000     -71.66260000
H      -49.35160000     -32.38920000     -71.63730000
H      -48.73880000     -33.90360000     -71.00450000
C      -44.45760000     -30.01730000     -72.30920000
H      -44.90770000     -29.78090000     -73.28550000
H      -44.01410000     -29.23450000     -71.64270000
S      -48.38490000     -33.60760000     -73.46180000
S      -42.92040000     -31.03860000     -72.70820000
C      -47.68470000     -35.31360000     -73.34220000
H      -48.22750000     -35.88170000     -72.54930000
H      -47.80540000     -35.80950000     -74.33810000
C      -43.45310000     -32.47010000     -73.70060000
H      -42.98120000     -32.46860000     -74.69550000
H      -44.50840000     -32.42710000     -73.87210000
C      -43.09480000     -33.84340000     -72.91000000
H      -43.36770000     -34.68680000     -73.56490000
H      -41.94220000     -33.93720000     -73.00700000
C      -46.12950000     -35.25120000     -72.98270000
H      -45.74590000     -34.42580000     -73.53360000
H      -45.64960000     -36.14410000     -73.35900000
C      -45.83710000     -35.18090000     -71.48010000
C      -46.56740000     -35.87330000     -70.54650000
C      -44.61880000     -34.62500000     -70.91730000
H      -47.40250000     -36.44200000     -70.81380000
C      -44.54860000     -34.86540000     -69.56410000
C      -43.45290000     -34.01920000     -71.50090000
C      -42.63530000     -33.54530000     -70.51130000
S      -45.86540000     -35.94550000     -68.99280000
S      -43.12410000     -34.00200000     -68.85730000
H      -41.72540000     -32.96230000     -70.56720000
