40
Properties=species:S:1:pos:R:3 #=T CELL(abcABC):=T 1.889726e+02=T 90.00000=T Traj:=T positionsangstrom=T Step:=T 0=T Bead:=T pbc="F F F"
C      -45.06290000     -30.90750000     -70.03740000
C      -45.28930000     -30.88920000     -71.42110000
C      -46.33360000     -31.64900000     -71.95880000
C      -47.21470000     -32.38280000     -71.16630000
C      -46.91150000     -32.49550000     -69.76500000
C      -45.85440000     -31.74890000     -69.23740000
H      -44.24560000     -30.39280000     -69.58910000
H      -46.54410000     -31.61690000     -73.06770000
H      -47.53000000     -33.02790000     -69.08490000
H      -45.70380000     -31.73510000     -68.11670000
C      -48.54260000     -32.96410000     -71.70320000
H      -49.33040000     -32.29540000     -71.70420000
H      -48.74440000     -33.88240000     -71.12140000
C      -44.35480000     -30.07410000     -72.38790000
H      -44.84010000     -29.73370000     -73.28270000
H      -44.17750000     -29.12980000     -71.91440000
S      -48.41840000     -33.61990000     -73.41150000
S      -42.78230000     -30.90070000     -72.85430000
C      -47.79410000     -35.38200000     -73.33110000
H      -48.53410000     -35.96360000     -72.75500000
H      -47.90840000     -35.68380000     -74.29970000
C      -43.58450000     -32.43340000     -73.55520000
H      -43.37730000     -32.44620000     -74.63250000
H      -44.65910000     -32.46220000     -73.44320000
C      -43.02240000     -33.77720000     -72.96590000
H      -43.45810000     -34.53650000     -73.52540000
H      -41.93010000     -33.84630000     -72.98690000
C      -46.26330000     -35.38290000     -73.02300000
H      -45.81560000     -34.65210000     -73.70110000
H      -45.88510000     -36.38780000     -73.40380000
C      -45.78180000     -35.40650000     -71.54190000
C      -46.53310000     -36.06890000     -70.56300000
C      -44.54550000     -34.75730000     -70.98910000
H      -47.41300000     -36.64390000     -70.67880000
C      -44.55310000     -34.83850000     -69.59220000
C      -43.39860000     -34.03390000     -71.52140000
C      -42.59670000     -33.65230000     -70.49780000
S      -45.92210000     -35.67190000     -68.93250000
S      -43.12440000     -34.19310000     -68.83810000
H      -41.53670000     -33.24790000     -70.60630000
