40
Properties=species:S:1:pos:R:3 #=T CELL(abcABC):=T 1.889726e+02=T 90.00000=T Traj:=T positionsangstrom=T Step:=T 0=T Bead:=T pbc="F F F"
C      -45.10780000     -30.84020000     -69.96050000
C      -45.24210000     -30.83800000     -71.36900000
C      -46.21910000     -31.60560000     -71.93340000
C      -47.17180000     -32.36900000     -71.14360000
C      -47.05210000     -32.27100000     -69.79230000
C      -45.99370000     -31.53890000     -69.17570000
H      -44.30480000     -30.23040000     -69.42650000
H      -46.36630000     -31.53860000     -73.02050000
H      -47.73770000     -32.81970000     -69.08480000
H      -45.78020000     -31.66950000     -68.13480000
C      -48.41240000     -33.10980000     -71.65470000
H      -49.29330000     -32.43060000     -71.52620000
H      -48.78200000     -33.91690000     -71.01890000
C      -44.38080000     -30.06560000     -72.32020000
H      -44.99520000     -29.58550000     -73.13080000
H      -43.81570000     -29.23590000     -71.80520000
S      -48.30270000     -33.64090000     -73.44670000
S      -42.96830000     -31.13180000     -72.96790000
C      -47.58840000     -35.31640000     -73.36940000
H      -48.13800000     -35.96380000     -72.60800000
H      -47.67680000     -35.76440000     -74.37470000
C      -43.62640000     -32.71910000     -73.71650000
H      -43.29330000     -32.66470000     -74.76680000
H      -44.76060000     -32.88280000     -73.71700000
C      -42.94750000     -33.94040000     -73.00730000
H      -43.37970000     -34.85640000     -73.54490000
H      -41.85990000     -33.90450000     -73.18970000
C      -46.12110000     -35.29810000     -72.96420000
H      -45.68540000     -34.47540000     -73.48750000
H      -45.72900000     -36.17910000     -73.41520000
C      -45.78940000     -35.26890000     -71.48410000
C      -46.68130000     -35.65150000     -70.49820000
C      -44.53150000     -34.77510000     -71.00160000
H      -47.75280000     -35.89370000     -70.55240000
C      -44.50040000     -34.94130000     -69.60580000
C      -43.34510000     -34.14320000     -71.51990000
C      -42.59360000     -33.75720000     -70.45290000
S      -45.94960000     -35.62730000     -68.89760000
S      -43.17220000     -34.14860000     -68.85000000
H      -41.60670000     -33.19480000     -70.54240000
