40
Properties=species:S:1:pos:R:3 #=T CELL(abcABC):=T 1.889726e+02=T 90.00000=T Traj:=T positionsangstrom=T Step:=T 0=T Bead:=T pbc="F F F"
C      -45.11310000     -30.88070000     -70.09990000
C      -45.28670000     -30.86850000     -71.45490000
C      -46.47200000     -31.50180000     -71.94830000
C      -47.34270000     -32.25510000     -71.17640000
C      -47.11640000     -32.18790000     -69.78290000
C      -46.03590000     -31.52790000     -69.23890000
H      -44.18470000     -30.39990000     -69.56870000
H      -46.63460000     -31.44900000     -73.00170000
H      -47.89680000     -32.63280000     -69.10830000
H      -46.01130000     -31.27440000     -68.22810000
C      -48.43880000     -33.13970000     -71.73390000
H      -49.40640000     -32.56690000     -71.63470000
H      -48.57220000     -34.06770000     -71.22110000
C      -44.34300000     -30.22560000     -72.39290000
H      -44.82240000     -29.91610000     -73.29650000
H      -43.82550000     -29.46530000     -71.78470000
S      -48.22790000     -33.52510000     -73.47110000
S      -42.83680000     -31.28580000     -72.91360000
C      -47.42340000     -35.26810000     -73.47540000
H      -48.05520000     -35.88210000     -72.85260000
H      -47.54040000     -35.56420000     -74.55380000
C      -43.67800000     -32.75910000     -73.57230000
H      -43.62090000     -32.76810000     -74.60670000
H      -44.70720000     -32.70530000     -73.34970000
C      -43.04250000     -34.06330000     -72.90640000
H      -43.40730000     -34.98430000     -73.33970000
H      -41.99010000     -34.22230000     -73.05810000
C      -46.02080000     -35.47730000     -73.02830000
H      -45.34470000     -34.72520000     -73.43580000
H      -45.68150000     -36.50360000     -73.36640000
C      -45.77660000     -35.31040000     -71.49240000
C      -46.55170000     -35.93730000     -70.56310000
C      -44.63700000     -34.59400000     -70.89280000
H      -47.49390000     -36.43360000     -70.77190000
C      -44.65810000     -34.60660000     -69.48190000
C      -43.37130000     -34.12020000     -71.41720000
C      -42.48520000     -33.76010000     -70.46390000
S      -46.04490000     -35.58840000     -68.87420000
S      -43.10570000     -34.08530000     -68.82530000
H      -41.58850000     -33.26920000     -70.83180000
