40
Properties=species:S:1:pos:R:3 #=T CELL(abcABC):=T 1.889726e+02=T 90.00000=T Traj:=T positionsangstrom=T Step:=T 0=T Bead:=T pbc="F F F"
C      -42.87440000     -36.23000000     -69.81100000
C      -42.60650000     -34.87510000     -69.62230000
C      -42.46750000     -33.99670000     -70.73740000
C      -42.67850000     -34.51510000     -72.05470000
C      -42.98740000     -35.88250000     -72.22990000
C      -43.06290000     -36.75450000     -71.09700000
H      -43.16820000     -36.79080000     -68.97440000
H      -42.36920000     -32.92680000     -70.56800000
H      -43.10230000     -36.23540000     -73.21200000
H      -43.27140000     -37.88050000     -71.24030000
C      -42.16430000     -33.60020000     -73.22630000
H      -41.44670000     -34.24640000     -73.71980000
H      -41.62430000     -32.73160000     -72.84520000
C      -42.54150000     -34.23600000     -68.24520000
H      -42.84210000     -34.86420000     -67.44530000
H      -41.50850000     -33.89260000     -68.06420000
S      -43.51610000     -33.06680000     -74.32330000
S      -43.57980000     -32.71170000     -68.06060000
C      -44.09660000     -31.47120000     -73.61810000
H      -43.21740000     -30.83400000     -73.41250000
H      -44.63560000     -30.98270000     -74.47570000
C      -45.12410000     -33.36250000     -68.93060000
H      -45.51000000     -34.15520000     -68.26900000
H      -44.80810000     -33.85980000     -69.78780000
C      -46.04800000     -32.18450000     -69.09800000
H      -46.30840000     -31.95350000     -68.05230000
H      -45.44960000     -31.33260000     -69.52470000
C      -45.02070000     -31.61720000     -72.34450000
H      -45.32980000     -30.54550000     -71.98490000
H      -44.44870000     -32.16190000     -71.62040000
C      -46.36150000     -32.27690000     -72.56170000
C      -46.87660000     -32.72820000     -73.74000000
C      -47.27840000     -32.51910000     -71.45250000
H      -46.29840000     -32.74020000     -74.63710000
C      -48.50290000     -32.98270000     -71.87480000
C      -47.24320000     -32.39060000     -69.98230000
C      -48.50670000     -32.63200000     -69.42820000
S      -48.48590000     -33.31930000     -73.64870000
S      -49.72860000     -33.16650000     -70.63610000
H      -48.62090000     -32.56120000     -68.33610000
