40
Properties=species:S:1:pos:R:3 #=T CELL(abcABC):=T 1.889726e+02=T 90.00000=T Traj:=T positionsangstrom=T Step:=T 0=T Bead:=T pbc="F F F"
C      -48.43640000     -32.21290000     -73.74180000
C      -48.55180000     -32.55950000     -72.38030000
C      -48.26030000     -33.86260000     -71.95880000
C      -48.03340000     -34.90940000     -72.86810000
C      -47.89550000     -34.60990000     -74.27140000
C      -48.10600000     -33.26990000     -74.63890000
H      -48.80170000     -31.23600000     -74.16420000
H      -48.31710000     -34.14060000     -70.92750000
H      -47.55060000     -35.33540000     -75.06980000
H      -47.91550000     -32.99480000     -75.65010000
C      -47.92080000     -36.31990000     -72.35430000
H      -47.61200000     -37.05970000     -73.12180000
H      -48.91870000     -36.74630000     -71.92420000
C      -49.07640000     -31.56760000     -71.34190000
H      -49.27010000     -30.62710000     -71.73830000
H      -49.94230000     -31.99910000     -70.79820000
S      -46.74270000     -36.70920000     -70.85600000
S      -47.91040000     -31.26080000     -69.91230000
C      -45.21160000     -35.69400000     -71.24820000
H      -44.71630000     -36.27290000     -72.07630000
H      -45.53110000     -34.78700000     -71.80780000
C      -46.25610000     -30.91400000     -70.63140000
H      -45.72620000     -30.28700000     -69.90360000
H      -46.33130000     -30.37250000     -71.51080000
C      -45.52670000     -32.28030000     -70.89920000
H      -45.76260000     -33.07570000     -70.16560000
H      -45.88390000     -32.66160000     -71.85690000
C      -44.38990000     -35.40060000     -69.98560000
H      -44.08450000     -36.38080000     -69.61550000
H      -45.00980000     -34.91490000     -69.17980000
C      -43.20320000     -34.55400000     -70.19580000
C      -41.97760000     -34.93670000     -69.79620000
C      -43.11190000     -33.13420000     -70.69560000
H      -41.77080000     -35.90700000     -69.29890000
C      -41.77030000     -32.72140000     -70.77970000
C      -44.03350000     -32.10850000     -71.01560000
C      -43.37700000     -30.98120000     -71.45130000
S      -40.63110000     -33.83120000     -70.15120000
S      -41.66730000     -31.16240000     -71.47960000
H      -43.94540000     -30.08160000     -71.64860000
