40
Properties=species:S:1:pos:R:3 #=T CELL(abcABC):=T 1.889726e+02=T 90.00000=T Traj:=T positionsangstrom=T Step:=T 0=T Bead:=T pbc="F F F"
C      -45.11430000     -30.94850000     -70.50540000
C      -45.26610000     -31.01740000     -71.85910000
C      -46.33360000     -31.70640000     -72.44720000
C      -47.28120000     -32.39440000     -71.52010000
C      -47.21630000     -32.08710000     -70.17210000
C      -46.12350000     -31.41950000     -69.64880000
H      -44.27770000     -30.37530000     -70.05290000
H      -46.53070000     -31.67590000     -73.50480000
H      -47.89560000     -32.56840000     -69.42460000
H      -46.04190000     -31.29380000     -68.57800000
C      -48.52820000     -33.11690000     -72.00480000
H      -49.33450000     -32.45330000     -71.94720000
H      -48.76780000     -33.86430000     -71.29230000
C      -44.30680000     -30.32060000     -72.80280000
H      -44.63430000     -30.12870000     -73.84740000
H      -43.95840000     -29.34080000     -72.37650000
S      -48.33970000     -33.88760000     -73.58870000
S      -42.64540000     -31.36120000     -72.95050000
C      -47.45030000     -35.51540000     -73.27390000
H      -48.02370000     -35.91390000     -72.45540000
H      -47.63240000     -36.02170000     -74.31000000
C      -43.20080000     -33.00660000     -73.58410000
H      -42.75510000     -33.30270000     -74.49430000
H      -44.27840000     -33.05690000     -73.74980000
C      -42.88700000     -34.09640000     -72.56160000
H      -43.24640000     -35.08650000     -72.79200000
H      -41.78390000     -34.20790000     -72.59010000
C      -46.01510000     -35.37690000     -72.80840000
H      -45.42200000     -34.57510000     -73.29130000
H      -45.57160000     -36.35860000     -73.11580000
C      -45.75620000     -35.26320000     -71.27980000
C      -46.58330000     -35.79460000     -70.31810000
C      -44.66010000     -34.50580000     -70.66930000
H      -47.36870000     -36.54260000     -70.59530000
C      -44.69300000     -34.57420000     -69.28250000
C      -43.35610000     -33.98470000     -71.15420000
C      -42.61540000     -33.49290000     -70.13830000
S      -46.08390000     -35.43150000     -68.65350000
S      -43.34930000     -33.72270000     -68.53360000
H      -41.63630000     -33.01430000     -70.14710000
