40
Properties=species:S:1:pos:R:3 #=T CELL(abcABC):=T 1.889726e+02=T 90.00000=T Traj:=T positionsangstrom=T Step:=T 0=T Bead:=T pbc="F F F"
C      -44.87910000     -30.88100000     -70.57310000
C      -45.26530000     -30.82370000     -71.93900000
C      -46.41440000     -31.57270000     -72.39940000
C      -47.22460000     -32.23740000     -71.53340000
C      -46.91110000     -32.13910000     -70.09470000
C      -45.72090000     -31.55330000     -69.71060000
H      -44.04620000     -30.30110000     -70.27130000
H      -46.70500000     -31.66650000     -73.49420000
H      -47.48680000     -32.67700000     -69.38170000
H      -45.40070000     -31.83010000     -68.71980000
C      -48.47730000     -33.03850000     -71.86780000
H      -49.25860000     -32.33550000     -72.07000000
H      -48.78590000     -33.70030000     -71.05460000
C      -44.34430000     -30.16560000     -72.95930000
H      -44.91270000     -30.03880000     -73.89640000
H      -43.93790000     -29.21960000     -72.59600000
S      -48.28210000     -33.92300000     -73.56930000
S      -42.81370000     -31.27140000     -73.10560000
C      -47.66330000     -35.62170000     -73.05930000
H      -48.44660000     -36.09510000     -72.37700000
H      -47.78220000     -36.12380000     -73.96260000
C      -43.52280000     -32.91620000     -73.54790000
H      -43.31880000     -33.20880000     -74.56980000
H      -44.60030000     -33.00880000     -73.41410000
C      -42.85680000     -34.10530000     -72.64550000
H      -43.10570000     -34.99200000     -73.19690000
H      -41.78080000     -33.95190000     -72.63130000
C      -46.15040000     -35.74660000     -72.67910000
H      -45.60450000     -35.04000000     -73.37130000
H      -45.85730000     -36.82060000     -72.89920000
C      -45.80930000     -35.28960000     -71.22960000
C      -46.75950000     -35.49330000     -70.24630000
C      -44.58360000     -34.71130000     -70.63910000
H      -47.75640000     -35.87390000     -70.38530000
C      -44.64860000     -34.55090000     -69.26740000
C      -43.37310000     -34.20240000     -71.16570000
C      -42.51290000     -33.84310000     -70.14970000
S      -46.18260000     -35.17630000     -68.60150000
S      -43.20590000     -33.91190000     -68.56920000
H      -41.49300000     -33.51110000     -70.33750000
