40
Properties=species:S:1:pos:R:3 #=T CELL(abcABC):=T 1.889726e+02=T 90.00000=T Traj:=T positionsangstrom=T Step:=T 0=T Bead:=T pbc="F F F"
C      -42.96120000     -35.96030000     -69.77460000
C      -42.57170000     -34.64530000     -69.67060000
C      -42.26190000     -33.91110000     -70.81320000
C      -42.34620000     -34.46470000     -72.10790000
C      -42.71510000     -35.82600000     -72.22460000
C      -43.00250000     -36.51410000     -71.03100000
H      -43.14180000     -36.50000000     -68.78630000
H      -41.87480000     -32.87720000     -70.67910000
H      -42.82070000     -36.32390000     -73.22230000
H      -43.15170000     -37.57580000     -71.16570000
C      -42.09560000     -33.64490000     -73.30970000
H      -41.51270000     -34.16480000     -74.06000000
H      -41.63660000     -32.65770000     -73.23050000
C      -42.54610000     -34.00440000     -68.32170000
H      -42.70390000     -34.79820000     -67.56480000
H      -41.51820000     -33.63520000     -68.03240000
S      -43.63340000     -33.20590000     -74.30880000
S      -43.72010000     -32.60340000     -68.02800000
C      -44.16990000     -31.54380000     -73.64070000
H      -43.27950000     -30.98350000     -73.36090000
H      -44.75400000     -31.01600000     -74.38090000
C      -45.20990000     -33.19610000     -68.87110000
H      -45.84170000     -33.95720000     -68.35330000
H      -44.92900000     -33.61850000     -69.84090000
C      -46.14360000     -31.99610000     -69.10790000
H      -46.40160000     -31.57330000     -68.09020000
H      -45.68950000     -31.18230000     -69.63560000
C      -44.97650000     -31.74900000     -72.34510000
H      -45.04240000     -30.80840000     -71.80050000
H      -44.39200000     -32.29000000     -71.60140000
C      -46.34440000     -32.39770000     -72.50740000
C      -46.81450000     -32.80410000     -73.70390000
C      -47.23730000     -32.71420000     -71.41030000
H      -46.24490000     -32.74650000     -74.62960000
C      -48.45720000     -33.21930000     -71.85400000
C      -47.36320000     -32.42600000     -69.98600000
C      -48.58480000     -32.77490000     -69.46140000
S      -48.48650000     -33.38770000     -73.60880000
S      -49.71150000     -33.28850000     -70.66620000
H      -48.97910000     -32.46950000     -68.51310000
