40
Properties=species:S:1:pos:R:3 #=T CELL(abcABC):=T 1.889726e+02=T 90.00000=T Traj:=T positionsangstrom=T Step:=T 0=T Bead:=T pbc="F F F"
C      -48.59690000     -32.60550000     -73.93510000
C      -48.51730000     -32.74320000     -72.55640000
C      -48.18970000     -33.97350000     -72.00420000
C      -47.93960000     -35.05310000     -72.85810000
C      -47.82520000     -34.86260000     -74.21460000
C      -48.19050000     -33.65300000     -74.80940000
H      -48.86450000     -31.67550000     -74.30170000
H      -48.20870000     -34.13090000     -70.85400000
H      -47.45260000     -35.74370000     -74.76260000
H      -48.12540000     -33.59910000     -75.85710000
C      -47.67010000     -36.45170000     -72.29100000
H      -47.07980000     -37.07880000     -72.92090000
H      -48.68810000     -36.99940000     -72.10880000
C      -48.61210000     -31.52970000     -71.63300000
H      -48.17530000     -30.67740000     -72.08830000
H      -49.58220000     -31.28630000     -71.37580000
S      -46.86630000     -36.50220000     -70.70060000
S      -47.85830000     -31.63510000     -69.87960000
C      -45.21490000     -35.75460000     -71.23370000
H      -44.61030000     -36.59590000     -71.61710000
H      -45.44990000     -35.06530000     -71.99680000
C      -46.05580000     -31.49290000     -70.06050000
H      -45.66190000     -32.20030000     -69.38640000
H      -45.67160000     -30.52460000     -69.83130000
C      -45.56520000     -31.83990000     -71.44240000
H      -46.04420000     -32.74970000     -71.72290000
H      -45.84260000     -31.01490000     -72.06200000
C      -44.71020000     -35.00420000     -70.04350000
H      -44.60850000     -35.72050000     -69.17110000
H      -45.45560000     -34.24580000     -69.73780000
C      -43.37700000     -34.27510000     -70.23950000
C      -42.21340000     -34.80900000     -69.76450000
C      -43.19430000     -32.92200000     -70.81370000
H      -42.14200000     -35.68370000     -69.11340000
C      -41.84280000     -32.56300000     -70.69930000
C      -44.04910000     -31.93080000     -71.37350000
C      -43.25880000     -30.82250000     -71.62580000
S      -40.77270000     -33.76490000     -70.01040000
S      -41.55450000     -30.97010000     -71.29590000
H      -43.61570000     -29.81980000     -71.84320000
