40
Properties=species:S:1:pos:R:3 #=T CELL(abcABC):=T 1.889726e+02=T 90.00000=T Traj:=T positionsangstrom=T Step:=T 0=T Bead:=T pbc="F F F"
C      -44.90510000     -30.79400000     -70.48100000
C      -45.23020000     -31.13890000     -71.82020000
C      -46.44170000     -31.71710000     -72.14850000
C      -47.32520000     -32.13050000     -71.18290000
C      -46.94970000     -32.00820000     -69.82080000
C      -45.76070000     -31.29320000     -69.46660000
H      -43.99910000     -30.32860000     -70.15860000
H      -46.60720000     -32.00700000     -73.15600000
H      -47.66870000     -32.16690000     -69.01150000
H      -45.49000000     -31.16380000     -68.45500000
C      -48.65070000     -32.64000000     -71.62150000
H      -49.24730000     -31.74450000     -71.99790000
H      -49.17630000     -33.24000000     -70.75220000
C      -44.27040000     -30.65250000     -72.91570000
H      -44.74110000     -30.71250000     -73.92760000
H      -43.92070000     -29.63680000     -72.75710000
S      -48.68910000     -33.70620000     -73.11690000
S      -42.78570000     -31.78120000     -73.13880000
C      -48.05230000     -35.31520000     -72.54620000
H      -48.51160000     -35.72480000     -71.64080000
H      -48.23850000     -35.96780000     -73.38740000
C      -43.69710000     -33.26670000     -73.88130000
H      -43.70590000     -33.33480000     -74.99450000
H      -44.78270000     -33.16470000     -73.66050000
C      -43.32980000     -34.64390000     -73.21140000
H      -43.93540000     -35.53330000     -73.53050000
H      -42.32190000     -35.04800000     -73.46050000
C      -46.54290000     -35.37240000     -72.43220000
H      -46.20250000     -34.54500000     -73.10820000
H      -46.12940000     -36.33280000     -72.68060000
C      -46.01980000     -35.07600000     -71.06470000
C      -46.68030000     -35.11020000     -69.86140000
C      -44.67070000     -34.71700000     -70.83010000
H      -47.73410000     -35.26780000     -69.72360000
C      -44.37390000     -34.38050000     -69.53340000
C      -43.46770000     -34.49330000     -71.69350000
C      -42.34410000     -34.26960000     -70.93180000
S      -45.67890000     -34.69280000     -68.48710000
S      -42.62410000     -34.06330000     -69.23290000
H      -41.33850000     -34.19830000     -71.23050000
