40
Properties=species:S:1:pos:R:3 #=T CELL(abcABC):=T 1.889726e+02=T 90.00000=T Traj:=T positionsangstrom=T Step:=T 0=T Bead:=T pbc="F F F"
C      -44.70350000     -31.06630000     -70.52850000
C      -45.15010000     -31.21220000     -71.84490000
C      -46.39970000     -31.73940000     -72.21230000
C      -47.27920000     -32.03830000     -71.16410000
C      -46.90910000     -31.76170000     -69.80530000
C      -45.58520000     -31.43340000     -69.49350000
H      -43.65520000     -30.78250000     -70.26610000
H      -46.71170000     -31.61960000     -73.21840000
H      -47.61260000     -32.15680000     -69.04830000
H      -45.24230000     -31.33440000     -68.44930000
C      -48.66010000     -32.60560000     -71.46140000
H      -49.38410000     -31.80440000     -71.50430000
H      -49.00480000     -33.24830000     -70.64910000
C      -44.17940000     -30.72730000     -72.92750000
H      -44.74190000     -30.25990000     -73.81050000
H      -43.62230000     -29.91270000     -72.51770000
S      -48.89190000     -33.66160000     -73.00440000
S      -42.92830000     -32.00050000     -73.48690000
C      -48.07810000     -35.24920000     -72.53930000
H      -48.64960000     -35.54520000     -71.63340000
H      -48.51900000     -35.89910000     -73.29520000
C      -43.88690000     -33.48130000     -73.97860000
H      -43.70910000     -33.59120000     -75.00820000
H      -44.96310000     -33.26520000     -73.78500000
C      -43.48770000     -34.71250000     -73.18270000
H      -44.21850000     -35.44280000     -73.43740000
H      -42.50750000     -35.01370000     -73.51290000
C      -46.55950000     -35.29540000     -72.36100000
H      -46.07400000     -34.55000000     -73.13650000
H      -46.30930000     -36.25170000     -72.71880000
C      -45.99510000     -34.92510000     -70.96900000
C      -46.68200000     -34.95880000     -69.76980000
C      -44.60030000     -34.66950000     -70.81840000
H      -47.68080000     -35.37390000     -69.60250000
C      -44.25040000     -34.49150000     -69.46020000
C      -43.41100000     -34.48080000     -71.71340000
C      -42.26560000     -34.20770000     -70.98580000
S      -45.60140000     -34.63290000     -68.39520000
S      -42.58660000     -33.93990000     -69.19790000
H      -41.31680000     -33.90310000     -71.28730000
