40
Properties=species:S:1:pos:R:3 #=T CELL(abcABC):=T 1.889726e+02=T 90.00000=T Traj:=T positionsangstrom=T Step:=T 0=T Bead:=T pbc="F F F"
C      -44.26050000     -30.71200000     -71.07390000
C      -44.92830000     -30.96270000     -72.35260000
C      -46.20380000     -31.46840000     -72.31880000
C      -46.84530000     -31.79300000     -71.10170000
C      -46.19680000     -31.64270000     -69.88400000
C      -44.87120000     -31.11240000     -69.88630000
H      -43.17160000     -30.50150000     -71.07310000
H      -46.71310000     -31.74800000     -73.19780000
H      -46.68690000     -31.85230000     -68.94090000
H      -44.38460000     -30.96770000     -69.00600000
C      -48.25850000     -32.25070000     -71.10240000
H      -48.94320000     -31.34580000     -71.16480000
H      -48.53430000     -32.56550000     -70.11100000
C      -44.15770000     -30.77580000     -73.67450000
H      -44.81130000     -30.48310000     -74.57140000
H      -43.34540000     -30.07490000     -73.57730000
S      -48.87030000     -33.49310000     -72.34100000
S      -43.26720000     -32.38560000     -74.09760000
C      -48.45460000     -35.17540000     -71.69520000
H      -48.90310000     -35.17600000     -70.69820000
H      -49.05060000     -35.81300000     -72.30440000
C      -44.48020000     -33.73900000     -74.03690000
H      -44.79920000     -34.12390000     -75.02390000
H      -45.37500000     -33.49580000     -73.47750000
C      -43.85740000     -34.93000000     -73.21790000
H      -44.53450000     -35.80540000     -73.29190000
H      -42.87840000     -35.06240000     -73.69730000
C      -46.98070000     -35.53810000     -71.84690000
H      -46.41780000     -35.08320000     -72.74030000
H      -46.94710000     -36.55680000     -72.05800000
C      -46.13270000     -35.17960000     -70.65240000
C      -46.65710000     -35.13710000     -69.37110000
C      -44.70520000     -34.76610000     -70.71280000
H      -47.67430000     -35.09030000     -69.02490000
C      -44.22670000     -34.43760000     -69.44380000
C      -43.71960000     -34.66270000     -71.76340000
C      -42.53540000     -34.33220000     -71.17890000
S      -45.50400000     -34.56490000     -68.18240000
S      -42.56780000     -33.95570000     -69.46670000
H      -41.63280000     -34.22890000     -71.65710000
