40
Properties=species:S:1:pos:R:3 #=T CELL(abcABC):=T 1.889726e+02=T 90.00000=T Traj:=T positionsangstrom=T Step:=T 0=T Bead:=T pbc="F F F"
C      -42.95070000     -35.71410000     -69.90860000
C      -42.49430000     -34.36650000     -69.75720000
C      -42.13770000     -33.66780000     -70.89390000
C      -42.16040000     -34.23020000     -72.16640000
C      -42.55610000     -35.62450000     -72.25730000
C      -42.96560000     -36.34940000     -71.17600000
H      -43.36150000     -36.19590000     -68.93030000
H      -41.71670000     -32.64680000     -70.76300000
H      -42.50220000     -36.02210000     -73.31730000
H      -43.32940000     -37.32020000     -71.40080000
C      -41.92290000     -33.52590000     -73.45260000
H      -41.23010000     -34.05180000     -74.11380000
H      -41.52900000     -32.47860000     -73.23300000
C      -42.44930000     -33.73560000     -68.30490000
H      -42.42650000     -34.57750000     -67.59460000
H      -41.53010000     -33.19350000     -68.15440000
S      -43.61430000     -33.29440000     -74.22140000
S      -43.71260000     -32.45550000     -68.04040000
C      -44.14820000     -31.76690000     -73.37030000
H      -43.22160000     -31.25010000     -73.08890000
H      -44.63880000     -31.09160000     -74.10940000
C      -45.34680000     -33.07120000     -68.70610000
H      -45.92920000     -33.69760000     -68.03700000
H      -45.12980000     -33.65480000     -69.59280000
C      -46.26680000     -31.89790000     -69.15870000
H      -46.75810000     -31.40020000     -68.35400000
H      -45.76960000     -31.10230000     -69.68040000
C      -45.01310000     -32.03680000     -72.16270000
H      -45.07120000     -31.12120000     -71.54490000
H      -44.52600000     -32.77080000     -71.43180000
C      -46.41750000     -32.53760000     -72.48170000
C      -46.85890000     -32.98750000     -73.68070000
C      -47.38930000     -32.73800000     -71.41500000
H      -46.36640000     -32.83010000     -74.67750000
C      -48.58120000     -33.28280000     -71.94530000
C      -47.39780000     -32.53780000     -69.96700000
C      -48.62760000     -32.82820000     -69.43240000
S      -48.50220000     -33.60130000     -73.65860000
S      -49.76870000     -33.49770000     -70.67360000
H      -48.80240000     -32.85500000     -68.35200000
