40
Properties=species:S:1:pos:R:3 #=T CELL(abcABC):=T 1.889726e+02=T 90.00000=T Traj:=T positionsangstrom=T Step:=T 0=T Bead:=T pbc="F F F"
C      -44.93770000     -36.79570000     -68.88350000
C      -44.30020000     -36.46960000     -70.09260000
C      -45.03370000     -36.50960000     -71.28650000
C      -46.41130000     -36.70500000     -71.32710000
C      -47.10560000     -37.02430000     -70.13370000
C      -46.35440000     -37.06420000     -68.93630000
H      -44.37720000     -36.77640000     -67.97210000
H      -44.45370000     -36.34120000     -72.19800000
H      -48.14330000     -37.25250000     -70.22730000
H      -46.97890000     -37.33700000     -68.04810000
C      -47.17550000     -36.59010000     -72.58430000
H      -47.86830000     -37.43710000     -72.77920000
H      -46.48170000     -36.55900000     -73.46690000
C      -42.80410000     -36.34740000     -70.09090000
H      -42.46180000     -36.98460000     -69.30380000
H      -42.31030000     -36.66350000     -70.95270000
S      -48.41810000     -35.19220000     -72.47600000
S      -42.18930000     -34.65750000     -69.43680000
C      -47.40460000     -33.61440000     -72.19020000
H      -48.12550000     -32.89420000     -72.43940000
H      -47.12630000     -33.48580000     -71.17800000
C      -42.94920000     -33.38360000     -70.51330000
H      -43.01970000     -33.65040000     -71.58730000
H      -42.19960000     -32.62400000     -70.48970000
C      -44.34210000     -32.89380000     -69.95930000
H      -45.12250000     -33.68850000     -70.11430000
H      -44.11840000     -32.79680000     -68.86790000
C      -46.13800000     -33.44040000     -73.05660000
H      -46.28140000     -33.79040000     -74.07940000
H      -45.30270000     -34.06360000     -72.65440000
C      -45.83820000     -31.92280000     -73.03170000
C      -46.00740000     -31.11460000     -74.12480000
C      -45.32500000     -31.19720000     -71.86380000
H      -46.48730000     -31.38160000     -75.04910000
C      -45.13170000     -29.84110000     -72.12170000
C      -44.82180000     -31.61320000     -70.49460000
C      -44.45460000     -30.48800000     -69.81950000
S      -45.53860000     -29.44650000     -73.78870000
S      -44.72410000     -28.94940000     -70.67050000
H      -44.08430000     -30.43270000     -68.77460000
