40
Properties=species:S:1:pos:R:3 #=T CELL(abcABC):=T 1.889726e+02=T 90.00000=T Traj:=T positionsangstrom=T Step:=T 0=T Bead:=T pbc="F F F"
C      -44.94150000     -36.67550000     -69.24590000
C      -44.28210000     -36.63590000     -70.51510000
C      -45.01900000     -36.52210000     -71.68230000
C      -46.38590000     -36.47080000     -71.60660000
C      -47.05070000     -36.45490000     -70.34480000
C      -46.32370000     -36.50090000     -69.16090000
H      -44.46840000     -36.72460000     -68.24860000
H      -44.53960000     -36.39140000     -72.67190000
H      -48.14490000     -36.43350000     -70.33280000
H      -46.82230000     -36.55100000     -68.20650000
C      -47.23860000     -36.47400000     -72.83580000
H      -47.84410000     -37.32810000     -72.83830000
H      -46.70110000     -36.54810000     -73.76600000
C      -42.79570000     -36.52270000     -70.70210000
H      -42.26110000     -37.37440000     -70.17540000
H      -42.50530000     -36.55310000     -71.73890000
S      -48.50710000     -35.12000000     -72.96820000
S      -42.22660000     -34.93540000     -69.80420000
C      -47.78730000     -33.51700000     -72.46340000
H      -48.49160000     -32.76220000     -72.87310000
H      -47.84920000     -33.49520000     -71.30230000
C      -43.27390000     -33.62000000     -70.51450000
H      -43.48300000     -34.06260000     -71.51920000
H      -42.56290000     -32.77970000     -70.77500000
C      -44.50450000     -33.14560000     -69.85700000
H      -45.44210000     -33.74000000     -70.16500000
H      -44.32480000     -33.23270000     -68.73090000
C      -46.35650000     -33.32430000     -72.99070000
H      -46.43740000     -33.64420000     -74.04340000
H      -45.69250000     -34.10100000     -72.58210000
C      -45.75980000     -31.90270000     -72.75560000
C      -45.96690000     -30.97060000     -73.68660000
C      -45.21950000     -31.28360000     -71.46100000
H      -46.25620000     -31.24560000     -74.65550000
C      -45.05210000     -29.91760000     -71.55870000
C      -44.71360000     -31.73900000     -70.23200000
C      -44.13640000     -30.76110000     -69.41600000
S      -45.54160000     -29.29380000     -73.19660000
S      -44.40550000     -29.12090000     -70.11980000
H      -43.88850000     -30.91660000     -68.38120000
