40
Properties=species:S:1:pos:R:3 #=T CELL(abcABC):=T 1.889726e+02=T 90.00000=T Traj:=T positionsangstrom=T Step:=T 0=T Bead:=T pbc="F F F"
C      -48.43420000     -33.15190000     -74.05330000
C      -48.41320000     -33.22560000     -72.65730000
C      -48.07840000     -34.43590000     -72.02890000
C      -47.73830000     -35.59560000     -72.76710000
C      -47.74690000     -35.52450000     -74.19340000
C      -48.20720000     -34.35700000     -74.80420000
H      -48.47040000     -32.19770000     -74.57420000
H      -47.95530000     -34.63580000     -70.99190000
H      -47.64770000     -36.48590000     -74.77820000
H      -48.28350000     -34.31050000     -75.89090000
C      -47.34520000     -36.85830000     -72.09440000
H      -46.74890000     -37.53700000     -72.73170000
H      -48.28800000     -37.47780000     -71.97760000
C      -48.70580000     -31.97300000     -71.81760000
H      -48.52010000     -31.04660000     -72.38890000
H      -49.82160000     -31.89940000     -71.71860000
S      -46.48000000     -36.61410000     -70.39670000
S      -48.11930000     -31.82850000     -70.05640000
C      -44.92410000     -35.62700000     -70.71450000
H      -44.02920000     -36.31340000     -70.69080000
H      -44.99330000     -35.17320000     -71.71220000
C      -46.34530000     -31.28830000     -70.15630000
H      -45.96930000     -31.48710000     -69.20950000
H      -46.33430000     -30.16530000     -70.42850000
C      -45.61030000     -31.91440000     -71.39640000
H      -45.88060000     -32.98730000     -71.57620000
H      -46.03660000     -31.37360000     -72.27030000
C      -44.73000000     -34.56130000     -69.65170000
H      -44.50800000     -34.98540000     -68.64850000
H      -45.64340000     -33.91940000     -69.63580000
C      -43.43570000     -33.76980000     -69.93640000
C      -42.20700000     -34.34210000     -69.62700000
C      -43.23310000     -32.54380000     -70.69000000
H      -42.09100000     -35.18380000     -68.96670000
C      -41.92110000     -32.15180000     -70.82290000
C      -44.15370000     -31.61250000     -71.30580000
C      -43.53900000     -30.54010000     -71.91640000
S      -40.81550000     -33.33560000     -70.17100000
S      -41.72810000     -30.58110000     -71.62990000
H      -44.18420000     -29.81500000     -72.36970000
