40
Properties=species:S:1:pos:R:3 #=T CELL(abcABC):=T 1.889726e+02=T 90.00000=T Traj:=T positionsangstrom=T Step:=T 0=T Bead:=T pbc="F F F"
C      -48.00760000     -33.02250000     -73.97910000
C      -48.29780000     -33.10320000     -72.58220000
C      -48.13300000     -34.29820000     -71.91580000
C      -47.77250000     -35.49510000     -72.63890000
C      -47.42350000     -35.37110000     -73.93820000
C      -47.58000000     -34.14620000     -74.68140000
H      -48.03220000     -32.06490000     -74.42110000
H      -48.30050000     -34.37220000     -70.79210000
H      -47.04290000     -36.15210000     -74.54920000
H      -47.44750000     -34.13100000     -75.73330000
C      -47.50040000     -36.75620000     -71.95300000
H      -47.12710000     -37.48740000     -72.73400000
H      -48.42190000     -37.23390000     -71.57110000
C      -48.79200000     -31.84160000     -71.84470000
H      -48.60960000     -30.93900000     -72.42630000
H      -49.92520000     -31.78500000     -71.91450000
S      -46.54600000     -36.64020000     -70.44840000
S      -48.30440000     -31.65070000     -70.07690000
C      -45.22860000     -35.53990000     -71.07320000
H      -44.46990000     -36.08970000     -71.61010000
H      -45.64140000     -34.70950000     -71.74000000
C      -46.50850000     -31.23450000     -70.07390000
H      -46.17630000     -31.66180000     -69.17250000
H      -46.34830000     -30.08730000     -69.84900000
C      -45.77910000     -31.92180000     -71.29420000
H      -46.04050000     -32.95900000     -71.18100000
H      -46.12630000     -31.57000000     -72.19820000
C      -44.51070000     -34.97640000     -69.84220000
H      -44.09900000     -35.87710000     -69.27450000
H      -45.16920000     -34.44400000     -69.06890000
C      -43.27970000     -34.02920000     -70.04990000
C      -42.00390000     -34.43120000     -69.71930000
C      -43.29980000     -32.70400000     -70.65090000
H      -41.77570000     -35.44460000     -69.35860000
C      -41.96850000     -32.29210000     -70.92070000
C      -44.27580000     -31.75060000     -71.19390000
C      -43.60790000     -30.70920000     -71.80900000
S      -40.74790000     -33.28720000     -70.19600000
S      -41.86270000     -30.72630000     -71.72720000
H      -44.05710000     -29.93560000     -72.40890000
