40
Properties=species:S:1:pos:R:3 #=T CELL(abcABC):=T 1.889726e+02=T 90.00000=T Traj:=T positionsangstrom=T Step:=T 0=T Bead:=T pbc="F F F"
C      -48.18030000     -32.83970000     -73.76250000
C      -48.66710000     -33.13520000     -72.48160000
C      -48.54110000     -34.46640000     -72.01930000
C      -47.64450000     -35.32560000     -72.65290000
C      -46.99640000     -34.89680000     -73.83130000
C      -47.30850000     -33.69760000     -74.44450000
H      -48.38820000     -31.86560000     -74.24370000
H      -49.02570000     -34.65410000     -71.12780000
H      -46.18090000     -35.53210000     -74.26760000
H      -46.80910000     -33.16590000     -75.24330000
C      -47.33160000     -36.68790000     -71.99030000
H      -46.48530000     -37.17830000     -72.48710000
H      -48.25690000     -37.37610000     -71.92370000
C      -49.24840000     -32.04890000     -71.51800000
H      -49.39090000     -31.07920000     -72.06660000
H      -50.21240000     -32.32730000     -71.06070000
S      -46.74110000     -36.43670000     -70.25930000
S      -48.16220000     -31.78780000     -70.03020000
C      -45.16770000     -35.70580000     -70.91220000
H      -44.43130000     -36.48640000     -71.08130000
H      -45.31370000     -35.28780000     -71.88680000
C      -46.53620000     -31.13520000     -70.71100000
H      -45.91800000     -30.86250000     -69.76190000
H      -46.76860000     -30.20370000     -71.23040000
C      -45.73500000     -32.13870000     -71.60170000
H      -45.96870000     -33.13190000     -71.32100000
H      -45.97150000     -31.97340000     -72.60070000
C      -44.46960000     -34.82010000     -69.81800000
H      -44.26530000     -35.50580000     -69.01860000
H      -45.14800000     -34.11410000     -69.28870000
C      -43.22370000     -34.13490000     -70.22810000
C      -41.96810000     -34.59480000     -69.90480000
C      -43.16260000     -32.83470000     -70.84990000
H      -41.72530000     -35.54400000     -69.42480000
C      -41.89020000     -32.31510000     -70.89690000
C      -44.20860000     -31.92340000     -71.37660000
C      -43.70810000     -30.71680000     -71.77210000
S      -40.68700000     -33.47890000     -70.35980000
S      -41.86890000     -30.70140000     -71.56500000
H      -44.38880000     -29.91670000     -72.13940000
