40
Properties=species:S:1:pos:R:3 #=T CELL(abcABC):=T 1.889726e+02=T 90.00000=T Traj:=T positionsangstrom=T Step:=T 0=T Bead:=T pbc="F F F"
C      -48.26890000     -32.80800000     -73.91320000
C      -48.41390000     -32.88440000     -72.55830000
C      -48.08510000     -34.10950000     -71.93370000
C      -47.84690000     -35.28660000     -72.60250000
C      -47.70580000     -35.18830000     -73.99900000
C      -47.83050000     -33.96660000     -74.61440000
H      -48.41790000     -31.92320000     -74.47530000
H      -48.09020000     -34.19370000     -70.82340000
H      -47.40680000     -36.07810000     -74.48640000
H      -47.78640000     -33.93980000     -75.71420000
C      -47.66920000     -36.66250000     -72.04500000
H      -47.47880000     -37.37620000     -72.88990000
H      -48.51640000     -37.14760000     -71.56830000
C      -49.05110000     -31.72760000     -71.89720000
H      -49.27270000     -30.95700000     -72.61280000
H      -49.99810000     -31.95200000     -71.49970000
S      -46.39590000     -36.82110000     -70.76170000
S      -48.27880000     -31.06630000     -70.31830000
C      -44.92310000     -35.75430000     -71.12540000
H      -44.15260000     -36.15390000     -71.76930000
H      -45.20470000     -34.87950000     -71.60800000
C      -46.57050000     -30.86210000     -70.63280000
H      -46.16730000     -30.31290000     -69.82670000
H      -46.35890000     -30.14660000     -71.53830000
C      -45.69600000     -32.19240000     -70.59340000
H      -45.99370000     -32.73310000     -69.71560000
H      -45.92870000     -32.95950000     -71.35070000
C      -44.26320000     -35.31830000     -69.81610000
H      -43.77970000     -36.16360000     -69.39320000
H      -44.98880000     -34.94100000     -69.12410000
C      -43.11760000     -34.33060000     -70.04800000
C      -41.82390000     -34.81200000     -69.93220000
C      -43.18190000     -32.92420000     -70.47730000
H      -41.47010000     -35.83610000     -69.77770000
C      -41.93910000     -32.38970000     -70.66000000
C      -44.23110000     -31.94610000     -70.79730000
C      -43.74220000     -30.78780000     -71.32130000
S      -40.63450000     -33.43480000     -70.35430000
S      -41.99220000     -30.84060000     -71.46760000
H      -44.22260000     -29.85070000     -71.62920000
