40
Properties=species:S:1:pos:R:3 #=T CELL(abcABC):=T 1.889726e+02=T 90.00000=T Traj:=T positionsangstrom=T Step:=T 0=T Bead:=T pbc="F F F"
C      -48.27300000     -32.87090000     -73.96840000
C      -48.53810000     -32.94130000     -72.59610000
C      -48.39160000     -34.16690000     -71.97880000
C      -47.86760000     -35.29140000     -72.65890000
C      -47.64380000     -35.20130000     -74.05370000
C      -47.86240000     -33.97840000     -74.73200000
H      -48.24620000     -31.84200000     -74.38680000
H      -48.72670000     -34.27140000     -70.93220000
H      -47.24940000     -36.01980000     -74.54310000
H      -47.76150000     -33.92700000     -75.81460000
C      -47.71940000     -36.59910000     -71.91570000
H      -47.61680000     -37.32740000     -72.69260000
H      -48.66200000     -36.82230000     -71.32710000
C      -49.09580000     -31.65500000     -71.86960000
H      -48.85550000     -30.80070000     -72.57490000
H      -50.17250000     -31.72380000     -71.67910000
S      -46.30310000     -36.80020000     -70.65060000
S      -48.30060000     -31.27950000     -70.22370000
C      -44.94010000     -35.66960000     -71.19980000
H      -44.15040000     -36.32530000     -71.70120000
H      -45.34690000     -34.97740000     -71.97760000
C      -46.49120000     -30.88320000     -70.82590000
H      -46.12900000     -30.03290000     -70.27670000
H      -46.54690000     -30.72270000     -71.92050000
C      -45.62940000     -32.14910000     -70.51460000
H      -45.66920000     -32.47260000     -69.50180000
H      -45.99990000     -32.97870000     -71.18210000
C      -44.44530000     -35.00600000     -69.90620000
H      -44.32480000     -35.75310000     -69.08350000
H      -45.22470000     -34.35620000     -69.50720000
C      -43.12310000     -34.28740000     -70.16440000
C      -41.82180000     -34.70720000     -69.94490000
C      -43.16610000     -32.91720000     -70.60840000
H      -41.59280000     -35.66300000     -69.51800000
C      -41.88100000     -32.43630000     -70.73890000
C      -44.17740000     -31.91290000     -70.88870000
C      -43.65230000     -30.74000000     -71.25200000
S      -40.60540000     -33.63290000     -70.45970000
S      -41.91980000     -30.70580000     -71.24750000
H      -44.16650000     -29.80870000     -71.24790000
