40
Properties=species:S:1:pos:R:3 #=T CELL(abcABC):=T 1.889726e+02=T 90.00000=T Traj:=T positionsangstrom=T Step:=T 0=T Bead:=T pbc="F F F"
C      -48.17660000     -32.86860000     -73.88140000
C      -48.58350000     -33.01830000     -72.58360000
C      -48.37890000     -34.21350000     -71.93000000
C      -47.83140000     -35.31300000     -72.67840000
C      -47.42250000     -35.12730000     -74.00380000
C      -47.66190000     -33.90150000     -74.65930000
H      -48.54800000     -31.97000000     -74.36320000
H      -48.54760000     -34.25900000     -70.87870000
H      -47.14840000     -36.01820000     -74.58530000
H      -47.40950000     -33.74700000     -75.70780000
C      -47.74680000     -36.59500000     -72.05870000
H      -47.51270000     -37.39220000     -72.78090000
H      -48.67010000     -36.89600000     -71.59210000
C      -49.18790000     -31.83610000     -71.89190000
H      -49.17470000     -30.94090000     -72.45700000
H      -50.28120000     -32.03960000     -71.66450000
S      -46.62220000     -36.73850000     -70.59810000
S      -48.26260000     -31.54360000     -70.28130000
C      -45.18620000     -35.68560000     -71.14020000
H      -44.59270000     -36.29380000     -71.74960000
H      -45.62060000     -34.86140000     -71.69060000
C      -46.64410000     -30.92540000     -70.82160000
H      -46.48180000     -30.00550000     -70.10530000
H      -46.59730000     -30.48940000     -71.79030000
C      -45.54350000     -32.02650000     -70.66770000
H      -45.71060000     -32.35430000     -69.61340000
H      -45.75930000     -32.91460000     -71.26650000
C      -44.41100000     -35.12640000     -69.86900000
H      -44.05460000     -36.00860000     -69.36410000
H      -45.16550000     -34.62660000     -69.25480000
C      -43.22970000     -34.19400000     -70.30660000
C      -41.99270000     -34.81130000     -70.19110000
C      -43.14650000     -32.80090000     -70.69640000
H      -41.82220000     -35.78520000     -69.83490000
C      -41.82690000     -32.41650000     -70.84200000
C      -44.02940000     -31.65800000     -70.72710000
C      -43.40520000     -30.48700000     -70.98610000
S      -40.66210000     -33.58700000     -70.52300000
S      -41.68400000     -30.69230000     -71.13650000
H      -43.84440000     -29.54110000     -71.11450000
