40
Properties=species:S:1:pos:R:3 #=T CELL(abcABC):=T 1.889726e+02=T 90.00000=T Traj:=T positionsangstrom=T Step:=T 0=T Bead:=T pbc="F F F"
C      -47.66290000     -32.64270000     -73.95570000
C      -48.46280000     -32.75840000     -72.78900000
C      -48.45900000     -33.98270000     -72.12420000
C      -47.78940000     -35.12220000     -72.72990000
C      -47.08350000     -34.99150000     -73.95770000
C      -47.05310000     -33.74950000     -74.53330000
H      -47.57210000     -31.69670000     -74.44080000
H      -48.82080000     -34.19680000     -71.10800000
H      -46.54810000     -35.83110000     -74.37140000
H      -46.36590000     -33.55870000     -75.36630000
C      -47.87650000     -36.38590000     -71.90200000
H      -47.85960000     -37.27130000     -72.56440000
H      -48.88040000     -36.47500000     -71.41280000
C      -48.89640000     -31.47630000     -72.10770000
H      -48.48940000     -30.66780000     -72.73510000
H      -50.00300000     -31.33780000     -72.07410000
S      -46.67710000     -36.72500000     -70.56050000
S      -48.38650000     -31.39060000     -70.36230000
C      -45.15670000     -35.82970000     -71.15780000
H      -44.65390000     -36.57970000     -71.87780000
H      -45.55690000     -34.97520000     -71.78390000
C      -46.62290000     -31.07870000     -70.38410000
H      -46.33440000     -30.35410000     -69.56170000
H      -46.49650000     -30.45800000     -71.32250000
C      -45.72440000     -32.36880000     -70.28600000
H      -45.89670000     -32.74880000     -69.28220000
H      -46.09540000     -33.20370000     -70.92220000
C      -44.19900000     -35.37970000     -70.02990000
H      -43.69590000     -36.28140000     -69.54290000
H      -44.73870000     -34.91370000     -69.27020000
C      -43.13010000     -34.49350000     -70.50940000
C      -41.82500000     -34.94170000     -70.63720000
C      -43.21890000     -33.01930000     -70.60760000
H      -41.64700000     -36.03010000     -70.47810000
C      -41.97760000     -32.40530000     -70.73320000
C      -44.29660000     -32.00160000     -70.53000000
C      -43.82070000     -30.74210000     -70.63270000
S      -40.64220000     -33.61200000     -70.90190000
S      -42.04650000     -30.68990000     -70.87140000
H      -44.39460000     -29.79080000     -70.61060000
