40
Properties=species:S:1:pos:R:3 #=T CELL(abcABC):=T 1.889726e+02=T 90.00000=T Traj:=T positionsangstrom=T Step:=T 0=T Bead:=T pbc="F F F"
C      -47.25410000     -32.47720000     -73.86580000
C      -47.96790000     -32.67260000     -72.68980000
C      -48.21140000     -33.92370000     -72.12440000
C      -47.71180000     -35.08370000     -72.74590000
C      -46.86440000     -34.92870000     -73.86550000
C      -46.63560000     -33.67770000     -74.41420000
H      -46.95640000     -31.51930000     -74.21220000
H      -48.88450000     -33.82090000     -71.28270000
H      -46.30460000     -35.80250000     -74.27010000
H      -45.85390000     -33.52940000     -75.13360000
C      -47.97230000     -36.42560000     -72.07640000
H      -48.16410000     -37.27140000     -72.80840000
H      -48.84470000     -36.38070000     -71.38030000
C      -48.45070000     -31.33930000     -72.12780000
H      -47.95740000     -30.37450000     -72.43590000
H      -49.53480000     -31.32280000     -72.33520000
S      -46.51470000     -37.14870000     -71.14350000
S      -48.38570000     -31.18110000     -70.26170000
C      -45.15600000     -35.87780000     -71.38370000
H      -44.31190000     -36.42150000     -71.73110000
H      -45.40610000     -35.14180000     -72.14970000
C      -46.57920000     -30.80180000     -70.03650000
H      -46.45420000     -30.18360000     -69.17260000
H      -46.31510000     -30.19160000     -70.92240000
C      -45.79410000     -32.09480000     -69.92220000
H      -45.82050000     -32.58500000     -68.97060000
H      -46.23040000     -32.85930000     -70.69610000
C      -44.66540000     -35.29540000     -70.01090000
H      -44.38690000     -36.16580000     -69.33830000
H      -45.50070000     -34.80660000     -69.52600000
C      -43.46210000     -34.38740000     -70.15010000
C      -42.25080000     -34.98690000     -70.48000000
C      -43.40040000     -32.98600000     -70.33800000
H      -42.01490000     -36.04520000     -70.33250000
C      -42.14880000     -32.52420000     -70.83840000
C      -44.36380000     -31.91770000     -70.31540000
C      -43.83700000     -30.73360000     -70.61670000
S      -40.98980000     -33.86180000     -70.90930000
S      -42.08780000     -30.75780000     -71.03510000
H      -44.24140000     -29.75570000     -70.36710000
