40
Properties=species:S:1:pos:R:3 #=T CELL(abcABC):=T 1.889726e+02=T 90.00000=T Traj:=T positionsangstrom=T Step:=T 0=T Bead:=T pbc="F F F"
C      -46.87380000     -32.39820000     -73.66200000
C      -47.82440000     -32.62540000     -72.58230000
C      -48.22280000     -33.86460000     -72.14480000
C      -47.73420000     -35.04250000     -72.75840000
C      -46.91050000     -34.86420000     -73.87650000
C      -46.42830000     -33.61260000     -74.24990000
H      -46.82010000     -31.40910000     -74.07400000
H      -48.90230000     -33.95560000     -71.25820000
H      -46.62590000     -35.73320000     -74.50430000
H      -45.78700000     -33.43510000     -75.16490000
C      -48.04660000     -36.38390000     -72.22030000
H      -48.47600000     -37.07620000     -72.91250000
H      -48.79430000     -36.22460000     -71.44470000
C      -48.57810000     -31.35740000     -72.09250000
H      -48.07560000     -30.54280000     -72.48100000
H      -49.57910000     -31.31930000     -72.44830000
S      -46.60850000     -37.12860000     -71.23430000
S      -48.55580000     -31.20020000     -70.21350000
C      -45.08640000     -36.03490000     -71.34240000
H      -44.32950000     -36.72560000     -71.69490000
H      -45.10350000     -35.22360000     -72.13060000
C      -46.73450000     -30.70010000     -70.05980000
H      -46.57690000     -30.19550000     -69.15360000
H      -46.47880000     -29.98790000     -70.85360000
C      -45.82080000     -31.95450000     -70.09440000
H      -46.08290000     -32.50690000     -69.15740000
H      -46.22780000     -32.70590000     -70.81920000
C      -44.76590000     -35.27610000     -70.00320000
H      -44.65120000     -36.04130000     -69.16240000
H      -45.64110000     -34.71820000     -69.83740000
C      -43.49020000     -34.42300000     -70.23620000
C      -42.23950000     -35.03420000     -70.46450000
C      -43.41510000     -32.98860000     -70.39770000
H      -42.02680000     -36.14550000     -70.42160000
C      -42.10190000     -32.57720000     -70.72340000
C      -44.36970000     -31.87840000     -70.37640000
C      -43.72800000     -30.70490000     -70.66190000
S      -40.97410000     -33.86190000     -70.79980000
S      -41.94160000     -30.93040000     -71.08500000
H      -43.98640000     -29.68920000     -70.74390000
