40
Properties=species:S:1:pos:R:3 #=T CELL(abcABC):=T 1.889726e+02=T 90.00000=T Traj:=T positionsangstrom=T Step:=T 0=T Bead:=T pbc="F F F"
C      -42.74680000     -35.19460000     -69.63010000
C      -42.38500000     -33.85660000     -69.59670000
C      -42.14420000     -33.30680000     -70.85400000
C      -42.33150000     -34.00080000     -72.06260000
C      -42.83980000     -35.31480000     -72.02530000
C      -43.02460000     -35.93900000     -70.74770000
H      -42.80600000     -35.80790000     -68.75560000
H      -41.89760000     -32.21790000     -70.96180000
H      -42.97680000     -35.86020000     -72.97800000
H      -43.13030000     -37.01930000     -70.67110000
C      -41.98420000     -33.30300000     -73.33320000
H      -41.29240000     -33.89730000     -73.87830000
H      -41.49960000     -32.34890000     -73.10820000
C      -42.42390000     -33.03740000     -68.28910000
H      -42.62440000     -33.76630000     -67.53080000
H      -41.45330000     -32.51360000     -68.18760000
S      -43.51810000     -32.96060000     -74.34440000
S      -43.75200000     -31.87380000     -68.36140000
C      -44.25540000     -31.67880000     -73.23990000
H      -43.36850000     -31.14500000     -72.86970000
H      -44.73090000     -30.86040000     -73.81830000
C      -45.20660000     -32.91450000     -68.77960000
H      -45.42720000     -33.60390000     -67.90910000
H      -44.94360000     -33.63100000     -69.59150000
C      -46.46170000     -32.17850000     -69.24240000
H      -46.98150000     -31.64880000     -68.37820000
H      -46.19810000     -31.29790000     -69.88110000
C      -45.09300000     -32.23000000     -72.12770000
H      -45.13450000     -31.46710000     -71.43120000
H      -44.48310000     -33.00480000     -71.61020000
C      -46.41940000     -32.89810000     -72.53510000
C      -46.74420000     -33.52220000     -73.70730000
C      -47.39810000     -33.18570000     -71.48340000
H      -46.16870000     -33.47660000     -74.62170000
C      -48.55280000     -33.74640000     -71.97700000
C      -47.45880000     -32.93280000     -70.05260000
C      -48.64490000     -33.35710000     -69.43680000
S      -48.42960000     -34.12220000     -73.68760000
S      -49.73120000     -34.04740000     -70.67450000
H      -48.89850000     -33.35010000     -68.41940000
