40
Properties=species:S:1:pos:R:3 #=T CELL(abcABC):=T 1.889726e+02=T 90.00000=T Traj:=T positionsangstrom=T Step:=T 0=T Bead:=T pbc="F F F"
C      -46.90710000     -32.33270000     -73.58140000
C      -47.97830000     -32.57240000     -72.66990000
C      -48.26610000     -33.91590000     -72.28230000
C      -47.56490000     -35.01050000     -72.74190000
C      -46.53330000     -34.76120000     -73.71440000
C      -46.23580000     -33.46670000     -74.09590000
H      -46.52780000     -31.29070000     -73.77670000
H      -49.04960000     -34.08280000     -71.51430000
H      -46.03180000     -35.61260000     -74.09950000
H      -45.39510000     -33.26520000     -74.87370000
C      -47.93770000     -36.43400000     -72.36300000
H      -47.96340000     -36.95590000     -73.32400000
H      -48.90240000     -36.46130000     -71.85360000
C      -48.71690000     -31.46250000     -72.06800000
H      -48.47010000     -30.50400000     -72.64760000
H      -49.84730000     -31.59490000     -72.03990000
S      -46.63490000     -37.20130000     -71.18330000
S      -48.40950000     -31.04030000     -70.31190000
C      -45.12300000     -36.19980000     -71.40490000
H      -44.30630000     -36.96210000     -71.44620000
H      -45.04880000     -35.59390000     -72.26360000
C      -46.64030000     -30.78940000     -70.20330000
H      -46.41860000     -30.06020000     -69.34510000
H      -46.46670000     -30.19520000     -71.17210000
C      -45.83040000     -32.04300000     -70.11280000
H      -45.83520000     -32.48410000     -69.08720000
H      -46.26680000     -32.78750000     -70.65640000
C      -44.88420000     -35.30570000     -70.15170000
H      -44.68690000     -35.80710000     -69.24190000
H      -45.79530000     -34.76690000     -69.90930000
C      -43.60500000     -34.44040000     -70.33960000
C      -42.36170000     -35.09440000     -70.41710000
C      -43.53650000     -32.98370000     -70.57390000
H      -42.22340000     -36.17760000     -70.48010000
C      -42.16960000     -32.57650000     -70.67730000
C      -44.44170000     -31.87070000     -70.50740000
C      -43.72000000     -30.71860000     -70.69980000
S      -41.02580000     -33.93220000     -70.67180000
S      -42.00600000     -30.82880000     -70.91210000
H      -44.07650000     -29.73730000     -70.75220000
