40
Properties=species:S:1:pos:R:3 #=T CELL(abcABC):=T 1.889726e+02=T 90.00000=T Traj:=T positionsangstrom=T Step:=T 0=T Bead:=T pbc="F F F"
C      -46.91450000     -32.18090000     -73.49830000
C      -47.99420000     -32.49350000     -72.64120000
C      -48.16840000     -33.85580000     -72.27750000
C      -47.42070000     -34.86900000     -72.87390000
C      -46.38630000     -34.54030000     -73.73110000
C      -46.10660000     -33.19160000     -74.02850000
H      -46.79430000     -31.11550000     -73.81800000
H      -48.97300000     -34.16320000     -71.65070000
H      -45.71480000     -35.28190000     -74.14030000
H      -45.24260000     -33.00560000     -74.65340000
C      -47.65260000     -36.38500000     -72.53060000
H      -47.40900000     -37.00720000     -73.45850000
H      -48.68430000     -36.64420000     -72.29090000
C      -48.95430000     -31.46310000     -72.14610000
H      -49.02490000     -30.62920000     -72.81580000
H      -49.91270000     -31.95730000     -72.11440000
S      -46.69470000     -37.15720000     -71.23340000
S      -48.52750000     -30.89350000     -70.39170000
C      -44.97010000     -36.51190000     -71.17340000
H      -44.41270000     -37.38170000     -70.75420000
H      -44.56900000     -36.22150000     -72.12630000
C      -46.64220000     -30.73950000     -70.54090000
H      -46.26660000     -29.97400000     -69.87080000
H      -46.39650000     -30.42890000     -71.48550000
C      -45.93160000     -32.04260000     -70.24600000
H      -46.11710000     -32.30770000     -69.18210000
H      -46.28610000     -32.79030000     -70.93200000
C      -44.96160000     -35.26520000     -70.25870000
H      -45.19200000     -35.61800000     -69.17990000
H      -45.83630000     -34.61260000     -70.64830000
C      -43.57210000     -34.54460000     -70.36880000
C      -42.34590000     -35.20280000     -70.44930000
C      -43.51380000     -33.09060000     -70.46190000
H      -42.10930000     -36.22860000     -70.30370000
C      -42.19630000     -32.67360000     -70.66860000
C      -44.41640000     -31.93940000     -70.33810000
C      -43.79220000     -30.76260000     -70.41610000
S      -41.02620000     -34.05970000     -70.65070000
S      -42.02310000     -30.95000000     -70.75160000
H      -44.27220000     -29.82410000     -70.17350000
