40
Properties=species:S:1:pos:R:3 #=T CELL(abcABC):=T 1.889726e+02=T 90.00000=T Traj:=T positionsangstrom=T Step:=T 0=T Bead:=T pbc="F F F"
C      -47.13740000     -32.07670000     -73.51760000
C      -48.06960000     -32.58750000     -72.62860000
C      -48.14580000     -33.98290000     -72.41370000
C      -47.16010000     -34.84150000     -72.94550000
C      -46.21460000     -34.32360000     -73.80490000
C      -46.13640000     -32.94790000     -74.05410000
H      -47.15280000     -30.99270000     -73.74510000
H      -48.88040000     -34.34610000     -71.72030000
H      -45.48760000     -34.98280000     -74.32970000
H      -45.37340000     -32.63250000     -74.71130000
C      -47.35530000     -36.37080000     -72.87380000
H      -46.86440000     -36.88320000     -73.71180000
H      -48.44870000     -36.51620000     -72.88180000
C      -49.05740000     -31.61660000     -72.06050000
H      -49.18690000     -30.72670000     -72.67980000
H      -50.05520000     -32.05060000     -71.85970000
S      -46.89880000     -37.17580000     -71.20970000
S      -48.46540000     -30.89200000     -70.41570000
C      -45.15430000     -36.65120000     -70.99030000
H      -44.59930000     -37.42420000     -70.51420000
H      -44.79420000     -36.69600000     -72.07390000
C      -46.65350000     -30.65620000     -70.54280000
H      -46.50890000     -29.76220000     -69.80120000
H      -46.36530000     -30.25490000     -71.53350000
C      -45.83600000     -31.90930000     -70.12500000
H      -45.94610000     -32.05660000     -69.05470000
H      -46.32180000     -32.87650000     -70.49740000
C      -45.02040000     -35.27630000     -70.34060000
H      -45.25500000     -35.38740000     -69.31860000
H      -45.78180000     -34.68850000     -70.85850000
C      -43.65390000     -34.53210000     -70.47060000
C      -42.45470000     -35.20850000     -70.63670000
C      -43.51920000     -33.07490000     -70.42000000
H      -42.29230000     -36.24200000     -70.60990000
C      -42.19890000     -32.71880000     -70.49800000
C      -44.34160000     -31.89690000     -70.32980000
C      -43.60550000     -30.78650000     -70.53060000
S      -41.08050000     -34.07480000     -70.62310000
S      -41.90350000     -31.05520000     -70.54910000
H      -44.14220000     -29.80690000     -70.64420000
