40
Properties=species:S:1:pos:R:3 #=T CELL(abcABC):=T 1.889726e+02=T 90.00000=T Traj:=T positionsangstrom=T Step:=T 0=T Bead:=T pbc="F F F"
C      -47.16340000     -34.90010000     -67.30180000
C      -47.55620000     -33.95560000     -68.27950000
C      -46.82740000     -32.71090000     -68.26910000
C      -45.66690000     -32.55960000     -67.53500000
C      -45.38150000     -33.52890000     -66.49000000
C      -46.14760000     -34.65770000     -66.37650000
H      -47.60280000     -35.91000000     -67.12680000
H      -47.13450000     -31.89870000     -68.87850000
H      -44.70100000     -33.22200000     -65.65310000
H      -46.00010000     -35.35160000     -65.61900000
C      -44.75660000     -31.45670000     -67.76010000
H      -43.64220000     -31.61280000     -67.56930000
H      -45.03770000     -30.58460000     -67.07780000
C      -48.68440000     -34.16420000     -69.20650000
H      -48.83700000     -35.21060000     -69.44450000
H      -49.59110000     -33.81750000     -68.76760000
S      -44.75620000     -30.75120000     -69.45050000
S      -48.49740000     -33.31740000     -70.82340000
C      -44.02560000     -31.92330000     -70.66830000
H      -42.90600000     -31.94860000     -70.55500000
H      -44.45330000     -32.87450000     -70.48130000
C      -47.12830000     -34.24980000     -71.60180000
H      -47.35200000     -35.34930000     -71.55530000
H      -46.17740000     -34.06080000     -71.02430000
C      -46.88590000     -33.62700000     -73.00600000
H      -47.77550000     -33.76190000     -73.71130000
H      -46.71860000     -32.56230000     -72.85970000
C      -44.25380000     -31.41630000     -72.09440000
H      -43.66400000     -30.52190000     -72.33740000
H      -45.29510000     -31.24760000     -72.36550000
C      -43.70420000     -32.47990000     -73.11200000
C      -42.36160000     -32.39150000     -73.47680000
C      -44.33020000     -33.67170000     -73.63530000
H      -41.73020000     -31.52500000     -73.34380000
C      -43.42940000     -34.34680000     -74.47790000
C      -45.65370000     -34.19620000     -73.77510000
C      -45.76650000     -35.24440000     -74.64300000
S      -41.92550000     -33.62030000     -74.61100000
S      -44.17190000     -35.72510000     -75.31340000
H      -46.65930000     -35.72120000     -74.95510000
