40
Properties=species:S:1:pos:R:3 #=T CELL(abcABC):=T 1.889726e+02=T 90.00000=T Traj:=T positionsangstrom=T Step:=T 0=T Bead:=T pbc="F F F"
C      -47.15180000     -31.81140000     -73.84640000
C      -48.16750000     -32.39300000     -73.05620000
C      -48.11550000     -33.75890000     -72.88770000
C      -47.16100000     -34.57520000     -73.51850000
C      -46.19260000     -34.02730000     -74.29110000
C      -46.22390000     -32.59220000     -74.55040000
H      -47.12130000     -30.75210000     -74.07150000
H      -48.81640000     -34.31980000     -72.32080000
H      -45.41620000     -34.63560000     -74.69270000
H      -45.59320000     -32.02980000     -75.21090000
C      -47.31890000     -36.06590000     -73.35940000
H      -46.65980000     -36.55900000     -74.12740000
H      -48.33690000     -36.37810000     -73.45290000
C      -49.12240000     -31.55820000     -72.15970000
H      -49.47220000     -30.63140000     -72.65210000
H      -50.05590000     -32.09200000     -71.94810000
S      -46.90990000     -36.76990000     -71.72570000
S      -48.40340000     -30.89170000     -70.56780000
C      -45.23840000     -35.94100000     -71.45400000
H      -44.45660000     -36.65440000     -71.76750000
H      -45.19690000     -35.15690000     -72.20400000
C      -46.53200000     -31.05240000     -70.64530000
H      -46.24770000     -30.14730000     -70.02300000
H      -46.22850000     -30.76600000     -71.70790000
C      -45.88610000     -32.35220000     -70.19620000
H      -46.20370000     -32.67260000     -69.20210000
H      -46.28150000     -33.13680000     -70.85700000
C      -44.87510000     -35.59170000     -70.05770000
H      -44.80380000     -36.59420000     -69.54620000
H      -45.65610000     -34.95890000     -69.60030000
C      -43.57780000     -34.82760000     -69.98640000
C      -42.34640000     -35.43580000     -69.88390000
C      -43.48070000     -33.41820000     -70.15950000
H      -42.16050000     -36.48150000     -69.86020000
C      -42.16540000     -32.94710000     -70.12580000
C      -44.41510000     -32.26040000     -70.23070000
C      -43.73530000     -31.08650000     -70.17090000
S      -41.00570000     -34.24250000     -69.86290000
S      -42.04700000     -31.21330000     -70.02900000
H      -44.28720000     -30.09460000     -70.13360000
