40
Properties=species:S:1:pos:R:3 #=T CELL(abcABC):=T 1.889726e+02=T 90.00000=T Traj:=T positionsangstrom=T Step:=T 0=T Bead:=T pbc="F F F"
C      -47.18360000     -31.79810000     -73.73970000
C      -48.22520000     -32.36630000     -73.05070000
C      -48.24630000     -33.76020000     -72.95830000
C      -47.27990000     -34.57000000     -73.52420000
C      -46.24810000     -33.98880000     -74.23990000
C      -46.16800000     -32.59390000     -74.37470000
H      -47.01700000     -30.70340000     -73.81660000
H      -49.03080000     -34.15180000     -72.30610000
H      -45.52860000     -34.63680000     -74.76230000
H      -45.34400000     -31.99990000     -74.77430000
C      -47.29540000     -36.07230000     -73.47270000
H      -46.73600000     -36.52000000     -74.28310000
H      -48.28640000     -36.49260000     -73.66070000
C      -49.20100000     -31.37580000     -72.31970000
H      -49.35860000     -30.45970000     -72.83310000
H      -50.15210000     -31.92510000     -72.07310000
S      -46.81440000     -36.59100000     -71.75940000
S      -48.47010000     -31.00380000     -70.63050000
C      -45.25330000     -35.59850000     -71.53160000
H      -44.48160000     -35.76580000     -72.25150000
H      -45.47880000     -34.51030000     -71.52840000
C      -46.58960000     -30.98650000     -70.79940000
H      -46.21020000     -30.25050000     -70.20190000
H      -46.31670000     -30.72100000     -71.82990000
C      -45.92070000     -32.36030000     -70.41940000
H      -46.36870000     -32.79210000     -69.52630000
H      -46.24860000     -33.07860000     -71.23990000
C      -44.70090000     -35.83810000     -70.17100000
H      -44.35180000     -36.85710000     -70.02750000
H      -45.50320000     -35.60380000     -69.45830000
C      -43.49120000     -34.88940000     -69.85270000
C      -42.25510000     -35.50100000     -69.74990000
C      -43.47860000     -33.45190000     -69.88640000
H      -42.07490000     -36.50090000     -69.63180000
C      -42.18050000     -33.01680000     -69.89160000
C      -44.38340000     -32.28610000     -70.29320000
C      -43.72850000     -31.11370000     -70.37880000
S      -41.01020000     -34.31240000     -69.64440000
S      -42.03360000     -31.28850000     -70.07870000
H      -44.23260000     -30.11740000     -70.59510000
