40
Properties=species:S:1:pos:R:3 #=T CELL(abcABC):=T 1.889726e+02=T 90.00000=T Traj:=T positionsangstrom=T Step:=T 0=T Bead:=T pbc="F F F"
C      -46.95820000     -31.60830000     -73.78740000
C      -47.97220000     -32.16310000     -72.93320000
C      -48.10440000     -33.53160000     -72.92330000
C      -47.38010000     -34.37270000     -73.73470000
C      -46.43550000     -33.79760000     -74.67530000
C      -46.25310000     -32.37130000     -74.67980000
H      -46.77920000     -30.52660000     -73.70170000
H      -48.76380000     -34.01980000     -72.19060000
H      -45.73360000     -34.39170000     -75.23250000
H      -45.51000000     -32.05510000     -75.42310000
C      -47.44920000     -35.91390000     -73.66130000
H      -46.70900000     -36.31540000     -74.33890000
H      -48.43790000     -36.32050000     -73.76610000
C      -48.79650000     -31.22560000     -72.01580000
H      -48.50180000     -30.18730000     -72.26200000
H      -49.86960000     -31.11450000     -72.10340000
S      -47.03920000     -36.39720000     -71.91260000
S      -48.37050000     -31.48890000     -70.26380000
C      -45.23140000     -36.01110000     -71.64060000
H      -44.54340000     -36.79300000     -72.06060000
H      -45.11210000     -35.13690000     -72.26500000
C      -46.53270000     -31.12920000     -70.45430000
H      -46.14440000     -30.52640000     -69.60810000
H      -46.54100000     -30.51550000     -71.28920000
C      -45.75630000     -32.42010000     -70.68030000
H      -46.08220000     -33.25360000     -70.04850000
H      -46.06110000     -32.74620000     -71.62550000
C      -44.96120000     -35.55340000     -70.16880000
H      -44.95600000     -36.45990000     -69.46580000
H      -45.86470000     -35.01140000     -69.84190000
C      -43.68710000     -34.81980000     -69.93140000
C      -42.58850000     -35.51330000     -69.41400000
C      -43.46730000     -33.42330000     -70.20970000
H      -42.48910000     -36.60590000     -69.19920000
C      -42.13020000     -33.05980000     -69.93330000
C      -44.26060000     -32.31170000     -70.54430000
C      -43.61920000     -31.10070000     -70.49310000
S      -41.17510000     -34.44500000     -69.39470000
S      -41.85710000     -31.36100000     -70.07320000
H      -43.93580000     -30.10650000     -70.67280000
