40
Properties=species:S:1:pos:R:3 #=T CELL(abcABC):=T 1.889726e+02=T 90.00000=T Traj:=T positionsangstrom=T Step:=T 0=T Bead:=T pbc="F F F"
C      -46.28070000     -34.88110000     -67.85980000
C      -47.00950000     -33.81280000     -68.29030000
C      -46.39680000     -32.50450000     -68.36650000
C      -45.13760000     -32.24510000     -67.79070000
C      -44.36710000     -33.41110000     -67.42800000
C      -44.90690000     -34.73010000     -67.60860000
H      -46.76170000     -35.94040000     -67.89190000
H      -46.94810000     -31.68140000     -68.78870000
H      -43.26980000     -33.20290000     -67.31430000
H      -44.32550000     -35.63000000     -67.47140000
C      -44.53410000     -30.88510000     -67.93790000
H      -43.46570000     -30.65190000     -67.63050000
H      -45.15690000     -30.16380000     -67.25300000
C      -48.51510000     -33.94440000     -68.84030000
H      -48.85320000     -34.92190000     -68.56990000
H      -49.24380000     -33.20700000     -68.35900000
S      -44.82070000     -30.36740000     -69.73370000
S      -48.72120000     -33.64620000     -70.65530000
C      -44.42290000     -31.85380000     -70.66150000
H      -43.36230000     -32.10770000     -70.52380000
H      -45.01520000     -32.75030000     -70.33160000
C      -47.12550000     -34.11960000     -71.38890000
H      -47.07010000     -35.22150000     -71.32150000
H      -46.29560000     -33.61200000     -70.94380000
C      -47.18820000     -33.82800000     -72.89640000
H      -48.01910000     -34.35690000     -73.25680000
H      -47.38160000     -32.82070000     -73.13790000
C      -44.73240000     -31.51290000     -72.09900000
H      -44.36670000     -30.49720000     -72.45450000
H      -45.84640000     -31.68410000     -72.22670000
C      -44.05060000     -32.50250000     -72.98010000
C      -42.72120000     -32.39840000     -73.29270000
C      -44.67370000     -33.66720000     -73.64280000
H      -41.94220000     -31.76200000     -73.00890000
C      -43.73610000     -34.44650000     -74.34680000
C      -45.91880000     -34.29460000     -73.50240000
C      -45.93430000     -35.45970000     -74.22900000
S      -42.16250000     -33.82820000     -74.27420000
S      -44.45680000     -35.96820000     -74.94360000
H      -46.86940000     -36.08410000     -74.35000000
