40
Properties=species:S:1:pos:R:3 #=T CELL(abcABC):=T 1.889726e+02=T 90.00000=T Traj:=T positionsangstrom=T Step:=T 0=T Bead:=T pbc="F F F"
C      -47.14910000     -31.32470000     -74.10630000
C      -48.01130000     -31.91670000     -73.15470000
C      -48.18510000     -33.33460000     -73.15280000
C      -47.32520000     -34.19850000     -73.83240000
C      -46.40200000     -33.60120000     -74.69130000
C      -46.38480000     -32.20850000     -74.87600000
H      -47.05850000     -30.23770000     -74.36000000
H      -48.99680000     -33.73060000     -72.47870000
H      -45.58770000     -34.17480000     -75.16220000
H      -45.79000000     -31.66270000     -75.62970000
C      -47.61760000     -35.66430000     -73.75510000
H      -47.16160000     -36.25740000     -74.53730000
H      -48.72410000     -35.84740000     -73.65150000
C      -48.87280000     -31.14800000     -72.23220000
H      -49.02710000     -30.11840000     -72.63280000
H      -49.91630000     -31.51260000     -72.09830000
S      -47.00640000     -36.32010000     -72.13480000
S      -48.29240000     -31.10560000     -70.45990000
C      -45.29780000     -35.64720000     -71.92840000
H      -44.56850000     -36.04460000     -72.68770000
H      -45.41610000     -34.57570000     -72.18030000
C      -46.47410000     -31.06350000     -70.45510000
H      -46.25030000     -30.28320000     -69.70360000
H      -46.08560000     -30.56890000     -71.31050000
C      -45.86680000     -32.46290000     -70.09390000
H      -46.33590000     -32.83600000     -69.13250000
H      -46.13980000     -33.22090000     -70.85950000
C      -44.96370000     -35.74780000     -70.43480000
H      -44.91990000     -36.77140000     -70.02660000
H      -45.76050000     -35.28040000     -69.86880000
C      -43.63440000     -35.06100000     -70.09110000
C      -42.48950000     -35.72250000     -69.76420000
C      -43.44980000     -33.66450000     -69.94230000
H      -42.51680000     -36.72890000     -69.66150000
C      -42.11470000     -33.38270000     -69.63430000
C      -44.31300000     -32.53000000     -70.01050000
C      -43.52480000     -31.38590000     -69.94980000
S      -41.07400000     -34.75650000     -69.37800000
S      -41.81750000     -31.66730000     -69.56470000
H      -43.91070000     -30.35030000     -69.83760000
