40
Properties=species:S:1:pos:R:3 #=T CELL(abcABC):=T 1.889726e+02=T 90.00000=T Traj:=T positionsangstrom=T Step:=T 0=T Bead:=T pbc="F F F"
C      -46.66240000     -34.02700000     -74.26970000
C      -47.58590000     -34.50760000     -73.33710000
C      -48.20980000     -33.52840000     -72.53110000
C      -48.04800000     -32.15670000     -72.72340000
C      -47.20180000     -31.69370000     -73.77100000
C      -46.63110000     -32.64640000     -74.57140000
H      -46.20650000     -34.64630000     -75.04470000
H      -48.99650000     -33.78130000     -71.76230000
H      -47.11460000     -30.64070000     -74.02980000
H      -45.92180000     -32.30610000     -75.36320000
C      -48.59240000     -31.20710000     -71.65840000
H      -48.81900000     -31.83070000     -70.74770000
H      -49.51320000     -30.72300000     -71.90590000
C      -47.89010000     -36.00340000     -73.04810000
H      -48.87010000     -36.33140000     -73.48040000
H      -47.16770000     -36.69280000     -73.47510000
S      -47.26230000     -29.98740000     -71.25310000
S      -47.88090000     -36.36310000     -71.26590000
C      -46.02690000     -30.98050000     -70.34170000
H      -45.64750000     -30.20580000     -69.65220000
H      -46.61780000     -31.67520000     -69.74820000
C      -45.97750000     -36.52110000     -71.00840000
H      -45.57430000     -37.19790000     -71.77990000
H      -45.82190000     -37.02150000     -69.90520000
C      -45.40850000     -35.07970000     -71.07150000
H      -45.55310000     -34.82990000     -72.13300000
H      -46.17630000     -34.38870000     -70.65500000
C      -44.92840000     -31.50210000     -71.34240000
H      -44.67650000     -30.58600000     -71.85360000
H      -45.48730000     -32.26460000     -71.94360000
C      -43.71550000     -32.05300000     -70.73260000
C      -42.73010000     -31.19900000     -70.34910000
C      -43.38640000     -33.48850000     -70.52750000
H      -42.78660000     -30.12950000     -70.45560000
C      -42.09430000     -33.58220000     -70.00100000
C      -44.02140000     -34.81690000     -70.60010000
C      -43.22550000     -35.75490000     -70.00530000
S      -41.28820000     -32.03700000     -69.73370000
S      -41.65380000     -35.14650000     -69.42940000
H      -43.46290000     -36.84180000     -69.84650000
