40
Properties=species:S:1:pos:R:3 #=T CELL(abcABC):=T 1.889726e+02=T 90.00000=T Traj:=T positionsangstrom=T Step:=T 0=T Bead:=T pbc="F F F"
C      -48.52970000     -33.56720000     -72.40990000
C      -48.19730000     -32.15190000     -72.63370000
C      -47.23320000     -31.79770000     -73.57190000
C      -46.64420000     -32.77570000     -74.39340000
C      -47.14070000     -34.18240000     -74.32700000
C      -48.06850000     -34.49960000     -73.35390000
H      -49.22590000     -33.83140000     -71.68380000
H      -46.90570000     -30.72540000     -73.51090000
H      -46.89630000     -34.83980000     -75.23140000
H      -48.38860000     -35.54150000     -73.24320000
C      -45.63150000     -32.29360000     -75.35790000
H      -46.05990000     -31.35000000     -75.80900000
H      -45.30410000     -32.98170000     -76.08640000
C      -48.87190000     -31.22560000     -71.58510000
H      -49.01140000     -30.22340000     -71.92590000
H      -49.81530000     -31.68470000     -71.27880000
S      -44.19190000     -31.61970000     -74.42270000
S      -47.81330000     -30.98880000     -70.10040000
C      -43.73600000     -33.19320000     -73.60820000
H      -44.46990000     -34.02090000     -73.93920000
H      -42.73150000     -33.56080000     -73.91260000
C      -46.86460000     -32.55240000     -69.80830000
H      -46.69350000     -33.21190000     -70.69410000
H      -47.51080000     -33.14990000     -69.05850000
C      -45.54840000     -32.22380000     -69.09500000
H      -44.97680000     -31.47780000     -69.65250000
H      -45.74170000     -31.73660000     -68.11030000
C      -43.74850000     -32.99690000     -72.09440000
H      -44.72330000     -32.64850000     -71.80910000
H      -43.04530000     -32.15400000     -71.93100000
C      -43.32700000     -34.07460000     -71.19630000
C      -42.45700000     -35.10030000     -71.48730000
C      -43.83250000     -34.18560000     -69.78280000
H      -42.00990000     -35.23920000     -72.41330000
C      -43.32010000     -35.31050000     -69.14120000
C      -44.70930000     -33.42490000     -68.87770000
C      -44.85040000     -33.97970000     -67.62060000
S      -42.24570000     -36.22440000     -70.13250000
S      -43.86130000     -35.47010000     -67.50010000
H      -45.58030000     -33.69560000     -66.83330000
