40
Properties=species:S:1:pos:R:3 #=T CELL(abcABC):=T 1.889726e+02=T 90.00000=T Traj:=T positionsangstrom=T Step:=T 0=T Bead:=T pbc="F F F"
C      -46.47470000     -31.34690000     -74.26000000
C      -47.33460000     -31.75920000     -73.23750000
C      -47.76720000     -33.07210000     -73.17750000
C      -47.23640000     -34.03150000     -74.05940000
C      -46.36270000     -33.62910000     -75.09020000
C      -46.05710000     -32.28390000     -75.24230000
H      -46.14180000     -30.29660000     -74.19210000
H      -48.50700000     -33.32990000     -72.52530000
H      -45.93680000     -34.42890000     -75.64220000
H      -45.40670000     -32.01060000     -76.08110000
C      -47.54360000     -35.55070000     -73.89870000
H      -46.98450000     -36.30180000     -74.43510000
H      -48.55520000     -35.66890000     -74.04580000
C      -48.06440000     -30.72830000     -72.31160000
H      -47.41700000     -29.78510000     -72.34860000
H      -49.02660000     -30.48080000     -72.72430000
S      -47.35450000     -35.96490000     -72.11920000
S      -48.23950000     -31.14840000     -70.54370000
C      -45.56210000     -35.64190000     -71.75330000
H      -45.00220000     -36.36430000     -72.30450000
H      -45.15420000     -34.69460000     -72.12080000
C      -46.47820000     -31.27990000     -69.97000000
H      -46.63470000     -31.34880000     -68.91010000
H      -45.96530000     -30.39870000     -70.33680000
C      -45.84270000     -32.52610000     -70.40050000
H      -46.25790000     -33.39030000     -69.97450000
H      -45.76760000     -32.55610000     -71.50530000
C      -45.23870000     -35.77340000     -70.21300000
H      -45.09160000     -36.82340000     -69.94210000
H      -46.01940000     -35.27040000     -69.64200000
C      -43.90370000     -35.14950000     -69.95880000
C      -42.77940000     -35.91890000     -69.90120000
C      -43.62770000     -33.74270000     -69.78870000
H      -42.68500000     -37.01040000     -70.03920000
C      -42.21170000     -33.47930000     -69.59310000
C      -44.40860000     -32.52310000     -69.79810000
C      -43.65830000     -31.43070000     -69.47040000
S      -41.32610000     -34.99540000     -69.73630000
S      -41.95440000     -31.80340000     -69.11490000
H      -44.01240000     -30.39690000     -69.55960000
