40
Properties=species:S:1:pos:R:3 #=T CELL(abcABC):=T 1.889726e+02=T 90.00000=T Traj:=T positionsangstrom=T Step:=T 0=T Bead:=T pbc="F F F"
C      -48.52740000     -33.83610000     -72.14970000
C      -48.31560000     -32.46130000     -72.36260000
C      -47.41790000     -31.95830000     -73.30780000
C      -46.77200000     -32.81000000     -74.17700000
C      -47.04700000     -34.19370000     -73.97470000
C      -47.93830000     -34.65770000     -73.05510000
H      -49.18590000     -34.11680000     -71.34770000
H      -47.06160000     -30.97440000     -73.22860000
H      -46.57660000     -34.92180000     -74.70490000
H      -48.04570000     -35.70980000     -72.87980000
C      -45.71140000     -32.53340000     -75.18990000
H      -46.06370000     -31.97850000     -76.07600000
H      -45.29750000     -33.52610000     -75.48510000
C      -48.90380000     -31.39620000     -71.38020000
H      -49.12280000     -30.49420000     -71.96060000
H      -49.75080000     -31.82560000     -70.81450000
S      -44.27230000     -31.47210000     -74.58550000
S      -47.47660000     -30.84330000     -70.25140000
C      -43.29320000     -32.65940000     -73.50390000
H      -43.27140000     -33.68340000     -73.92740000
H      -42.33060000     -32.22180000     -73.47890000
C      -46.86610000     -32.42720000     -69.58240000
H      -46.69910000     -33.02710000     -70.44670000
H      -47.54380000     -32.99200000     -68.94600000
C      -45.46040000     -32.22520000     -68.90490000
H      -44.86530000     -31.44050000     -69.44820000
H      -45.67210000     -31.81500000     -67.92450000
C      -43.92870000     -32.75470000     -72.02540000
H      -45.09370000     -32.73730000     -72.02860000
H      -43.69790000     -31.84380000     -71.44300000
C      -43.52220000     -33.90340000     -71.20310000
C      -42.58950000     -34.78870000     -71.60100000
C      -43.93920000     -34.15200000     -69.84060000
H      -42.00410000     -34.81800000     -72.54660000
C      -43.41330000     -35.30530000     -69.36860000
C      -44.80520000     -33.55410000     -68.83360000
C      -44.87320000     -34.24950000     -67.67700000
S      -42.32940000     -36.13570000     -70.46770000
S      -43.85370000     -35.72560000     -67.79540000
H      -45.22970000     -34.02610000     -66.69590000
