40
Properties=species:S:1:pos:R:3 #=T CELL(abcABC):=T 1.889726e+02=T 90.00000=T Traj:=T positionsangstrom=T Step:=T 0=T Bead:=T pbc="F F F"
C      -48.51120000     -33.96670000     -71.97050000
C      -48.19960000     -32.60970000     -72.01560000
C      -47.40480000     -32.12330000     -73.07520000
C      -46.95700000     -32.99740000     -74.04740000
C      -47.18100000     -34.35120000     -73.95450000
C      -48.04950000     -34.83590000     -72.96960000
H      -49.12260000     -34.34510000     -71.12590000
H      -47.13430000     -31.08950000     -73.08270000
H      -46.81250000     -34.94220000     -74.85000000
H      -48.31170000     -35.92910000     -72.93870000
C      -45.94380000     -32.60850000     -75.14220000
H      -46.46780000     -32.07940000     -75.91310000
H      -45.40190000     -33.35870000     -75.66720000
C      -48.72260000     -31.54740000     -70.99310000
H      -49.10340000     -30.70460000     -71.53870000
H      -49.42960000     -32.05490000     -70.37360000
S      -44.73030000     -31.37330000     -74.55400000
S      -47.34990000     -30.90010000     -69.96530000
C      -43.52910000     -32.26770000     -73.51170000
H      -43.26490000     -33.33910000     -73.95930000
H      -42.55160000     -31.70100000     -73.39500000
C      -46.55790000     -32.39260000     -69.40960000
H      -46.60590000     -33.01700000     -70.32380000
H      -47.25440000     -32.73310000     -68.65880000
C      -45.17280000     -32.17560000     -68.79590000
H      -44.69230000     -31.46130000     -69.49400000
H      -45.16600000     -31.79940000     -67.82020000
C      -44.02030000     -32.42860000     -72.07890000
H      -45.13240000     -32.46340000     -72.05670000
H      -43.76060000     -31.51770000     -71.56530000
C      -43.50150000     -33.70250000     -71.33070000
C      -42.66340000     -34.62920000     -71.93100000
C      -43.90840000     -34.11940000     -69.97470000
H      -42.09880000     -34.50150000     -72.82330000
C      -43.44430000     -35.38720000     -69.69960000
C      -44.48320000     -33.54810000     -68.79950000
C      -44.57670000     -34.35060000     -67.69930000
S      -42.24320000     -35.97490000     -70.82120000
S      -43.79620000     -35.89440000     -68.06680000
H      -45.15970000     -34.10590000     -66.81970000
