40
Properties=species:S:1:pos:R:3 #=T CELL(abcABC):=T 1.889726e+02=T 90.00000=T Traj:=T positionsangstrom=T Step:=T 0=T Bead:=T pbc="F F F"
C      -48.35690000     -34.10470000     -71.84940000
C      -48.45930000     -32.68060000     -71.88730000
C      -47.81800000     -32.04690000     -72.94920000
C      -47.13900000     -32.76160000     -73.97720000
C      -47.16670000     -34.15770000     -73.93650000
C      -47.73730000     -34.81900000     -72.86460000
H      -48.79520000     -34.65020000     -70.98860000
H      -47.82570000     -30.94960000     -72.88520000
H      -46.56090000     -34.69670000     -74.59340000
H      -47.69690000     -35.85000000     -72.82150000
C      -46.51880000     -32.00270000     -75.07960000
H      -47.15000000     -31.21330000     -75.51460000
H      -46.22000000     -32.68700000     -75.89600000
C      -48.99840000     -31.83800000     -70.80310000
H      -49.43000000     -30.88380000     -71.27900000
H      -49.82740000     -32.30380000     -70.20540000
S      -44.95760000     -31.17620000     -74.47550000
S      -47.71920000     -31.30260000     -69.52830000
C      -44.03210000     -32.66260000     -73.81340000
H      -44.49750000     -33.53820000     -74.27600000
H      -42.94560000     -32.53650000     -74.21540000
C      -46.46400000     -32.67190000     -69.58380000
H      -46.53270000     -33.00490000     -70.60570000
H      -46.85770000     -33.56770000     -69.04640000
C      -45.13010000     -32.16700000     -69.06570000
H      -44.77690000     -31.37330000     -69.67410000
H      -45.26760000     -31.82500000     -68.06470000
C      -44.24360000     -32.74880000     -72.29230000
H      -45.29260000     -33.12820000     -72.24090000
H      -44.14030000     -31.73630000     -71.87980000
C      -43.40600000     -33.77870000     -71.52570000
C      -42.87100000     -34.85830000     -72.17620000
C      -43.50500000     -34.05920000     -70.10420000
H      -42.53900000     -34.91960000     -73.25330000
C      -42.92290000     -35.22630000     -69.66880000
C      -44.19370000     -33.39000000     -69.03560000
C      -43.97500000     -33.98930000     -67.84780000
S      -42.33480000     -36.16270000     -71.02070000
S      -42.96250000     -35.48710000     -67.92390000
H      -44.42370000     -33.66060000     -66.92280000
