40
Properties=species:S:1:pos:R:3 #=T CELL(abcABC):=T 1.889726e+02=T 90.00000=T Traj:=T positionsangstrom=T Step:=T 0=T Bead:=T pbc="F F F"
C      -48.88260000     -34.02030000     -72.08590000
C      -48.70150000     -32.60290000     -71.90670000
C      -47.92610000     -31.83650000     -72.79530000
C      -47.38260000     -32.48760000     -73.94400000
C      -47.58190000     -33.86240000     -74.14610000
C      -48.31760000     -34.61690000     -73.20610000
H      -49.49900000     -34.54060000     -71.36350000
H      -47.84110000     -30.77460000     -72.68200000
H      -47.25340000     -34.35230000     -75.02790000
H      -48.35290000     -35.72510000     -73.22520000
C      -46.68740000     -31.73500000     -74.96980000
H      -46.84290000     -30.62070000     -75.02000000
H      -47.02230000     -32.01390000     -75.94930000
C      -49.14630000     -32.03090000     -70.59920000
H      -49.84480000     -31.23010000     -70.83270000
H      -49.77730000     -32.65020000     -69.94210000
S      -44.88600000     -31.79680000     -74.74200000
S      -47.82950000     -31.33220000     -69.56530000
C      -44.33480000     -33.31810000     -73.86500000
H      -45.08840000     -34.05530000     -73.98570000
H      -43.35730000     -33.64100000     -74.22780000
C      -46.71620000     -32.72010000     -69.08120000
H      -46.75960000     -33.60400000     -69.73450000
H      -46.90990000     -33.25760000     -68.09280000
C      -45.20860000     -32.34190000     -69.20280000
H      -45.06170000     -31.86710000     -70.19620000
H      -44.93300000     -31.56960000     -68.47630000
C      -44.22570000     -33.03830000     -72.33990000
H      -45.24760000     -33.08810000     -71.91510000
H      -43.89960000     -31.99850000     -72.21900000
C      -43.32160000     -33.93260000     -71.54980000
C      -42.37650000     -34.77820000     -72.06310000
C      -43.47880000     -34.02920000     -70.12530000
H      -42.29220000     -35.00800000     -73.08490000
C      -42.63320000     -35.00180000     -69.62790000
C      -44.26490000     -33.45430000     -69.02110000
C      -43.84110000     -33.88100000     -67.78770000
S      -41.61750000     -35.77960000     -70.82530000
S      -42.74690000     -35.28410000     -67.91920000
H      -44.34550000     -33.77070000     -66.80830000
