40
Properties=species:S:1:pos:R:3 #=T CELL(abcABC):=T 1.889726e+02=T 90.00000=T Traj:=T positionsangstrom=T Step:=T 0=T Bead:=T pbc="F F F"
C      -49.08400000     -33.88180000     -71.94470000
C      -48.68770000     -32.55030000     -71.83860000
C      -47.88590000     -31.91690000     -72.82130000
C      -47.43720000     -32.69220000     -73.91790000
C      -47.66890000     -34.06680000     -73.94240000
C      -48.50120000     -34.68630000     -72.96300000
H      -49.85390000     -34.30990000     -71.23930000
H      -47.86010000     -30.82580000     -72.84630000
H      -47.33360000     -34.58490000     -74.88800000
H      -48.74620000     -35.69940000     -73.21670000
C      -46.79830000     -31.98210000     -75.09870000
H      -47.14740000     -30.96010000     -75.15570000
H      -46.94260000     -32.64010000     -76.00750000
C      -49.15590000     -31.77330000     -70.70080000
H      -49.69070000     -30.77720000     -70.84210000
H      -49.75430000     -32.48100000     -70.06470000
S      -44.90680000     -31.92600000     -74.88420000
S      -47.67260000     -31.30050000     -69.66410000
C      -44.23010000     -33.32100000     -73.86790000
H      -44.84640000     -34.17630000     -73.94780000
H      -43.22280000     -33.43950000     -74.23800000
C      -46.56870000     -32.80160000     -69.63110000
H      -46.51830000     -33.04920000     -70.72220000
H      -47.06040000     -33.57740000     -69.07660000
C      -45.28610000     -32.32740000     -69.02410000
H      -45.00440000     -31.50850000     -69.66490000
H      -45.52100000     -32.00370000     -68.00670000
C      -44.12050000     -32.88700000     -72.39150000
H      -45.11850000     -32.83550000     -71.96280000
H      -43.78650000     -31.87270000     -72.16830000
C      -43.41470000     -33.89740000     -71.49300000
C      -42.57760000     -34.85790000     -72.02910000
C      -43.51210000     -33.97380000     -70.03660000
H      -42.29880000     -34.96930000     -73.08210000
C      -42.65900000     -34.97990000     -69.55410000
C      -44.20030000     -33.38400000     -68.94260000
C      -43.78450000     -33.86670000     -67.69040000
S      -41.73490000     -35.82160000     -70.83980000
S      -42.54780000     -35.10500000     -67.78860000
H      -44.05180000     -33.42670000     -66.79210000
