40
Properties=species:S:1:pos:R:3 #=T CELL(abcABC):=T 1.889726e+02=T 90.00000=T Traj:=T positionsangstrom=T Step:=T 0=T Bead:=T pbc="F F F"
C      -48.88000000     -34.05790000     -71.83120000
C      -48.33640000     -32.80130000     -71.69660000
C      -47.62050000     -32.26910000     -72.76890000
C      -47.56170000     -32.91760000     -74.00140000
C      -48.09830000     -34.26230000     -74.11450000
C      -48.73180000     -34.79430000     -73.00890000
H      -49.44280000     -34.54440000     -71.05950000
H      -47.04600000     -31.33770000     -72.62570000
H      -47.88750000     -34.89420000     -74.93360000
H      -49.24110000     -35.76980000     -73.05380000
C      -46.75710000     -32.40100000     -75.13260000
H      -47.20930000     -31.61850000     -75.72310000
H      -46.56660000     -33.22980000     -75.80120000
C      -48.85330000     -31.92580000     -70.58830000
H      -49.29110000     -31.17470000     -71.17270000
H      -49.60930000     -32.44030000     -69.94420000
S      -45.13150000     -31.67800000     -74.58960000
S      -47.58570000     -30.97670000     -69.66810000
C      -44.34320000     -33.20490000     -73.79660000
H      -44.77660000     -34.12490000     -74.22580000
H      -43.37220000     -33.18630000     -74.23480000
C      -46.45880000     -32.41500000     -69.25010000
H      -46.66100000     -33.21760000     -69.89280000
H      -46.59340000     -32.78990000     -68.20090000
C      -44.99570000     -32.02520000     -69.28480000
H      -44.69740000     -31.55180000     -70.26080000
H      -44.78470000     -31.25380000     -68.50790000
C      -44.35610000     -33.01140000     -72.33000000
H      -45.43090000     -33.00330000     -72.03890000
H      -43.97360000     -31.99530000     -72.05780000
C      -43.47280000     -33.99480000     -71.56910000
C      -42.68800000     -34.92900000     -72.13470000
C      -43.48380000     -34.02920000     -70.08460000
H      -42.56360000     -35.18400000     -73.15940000
C      -42.59320000     -34.97980000     -69.64680000
C      -44.11870000     -33.25890000     -69.07730000
C      -43.65300000     -33.70120000     -67.86760000
S      -41.86520000     -35.95900000     -70.91650000
S      -42.53920000     -35.06440000     -67.89260000
H      -44.15250000     -33.44240000     -66.99250000
