40
Properties=species:S:1:pos:R:3 #=T CELL(abcABC):=T 1.889726e+02=T 90.00000=T Traj:=T positionsangstrom=T Step:=T 0=T Bead:=T pbc="F F F"
C      -49.08210000     -34.06210000     -71.79480000
C      -48.43010000     -32.84090000     -71.62260000
C      -47.76000000     -32.32560000     -72.69890000
C      -47.56770000     -33.07110000     -73.83850000
C      -48.13170000     -34.40340000     -73.98510000
C      -48.88890000     -34.85500000     -72.93490000
H      -49.73090000     -34.44560000     -71.04490000
H      -47.50340000     -31.26040000     -72.72020000
H      -48.02470000     -35.00240000     -74.93610000
H      -49.42640000     -35.79850000     -72.88880000
C      -46.75090000     -32.49240000     -75.04320000
H      -47.28910000     -31.74130000     -75.58970000
H      -46.58450000     -33.36860000     -75.78370000
C      -48.73850000     -31.96120000     -70.43930000
H      -49.54930000     -31.15840000     -70.76250000
H      -49.15750000     -32.51330000     -69.59720000
S      -45.22070000     -31.57230000     -74.64500000
S      -47.33000000     -30.96980000     -69.80520000
C      -44.08630000     -32.79900000     -73.84970000
H      -44.23160000     -33.75460000     -74.40270000
H      -43.05990000     -32.47480000     -73.87670000
C      -46.27700000     -32.35830000     -69.24900000
H      -46.43440000     -33.12730000     -70.04550000
H      -46.68810000     -32.68570000     -68.25160000
C      -44.77560000     -31.92100000     -69.16530000
H      -44.50560000     -31.37850000     -70.05180000
H      -44.65360000     -31.34210000     -68.31030000
C      -44.50770000     -33.11200000     -72.42550000
H      -45.51490000     -33.53550000     -72.41910000
H      -44.72830000     -32.21980000     -71.88370000
C      -43.61740000     -34.12340000     -71.63350000
C      -42.85200000     -35.10310000     -72.15290000
C      -43.45970000     -34.02830000     -70.17180000
H      -42.76500000     -35.47960000     -73.18210000
C      -42.64020000     -35.05300000     -69.66190000
C      -43.92550000     -33.12290000     -69.10500000
C      -43.56310000     -33.55950000     -67.87800000
S      -41.94440000     -35.99350000     -70.93360000
S      -42.60370000     -35.07860000     -67.91970000
H      -43.56180000     -32.96290000     -66.97330000
