40
Properties=species:S:1:pos:R:3 #=T CELL(abcABC):=T 1.889726e+02=T 90.00000=T Traj:=T positionsangstrom=T Step:=T 0=T Bead:=T pbc="F F F"
C      -44.23340000     -35.10980000     -68.41170000
C      -45.13380000     -34.13010000     -68.02450000
C      -44.85040000     -32.79710000     -68.26590000
C      -43.61320000     -32.36860000     -68.77740000
C      -42.69840000     -33.38060000     -69.06970000
C      -42.95600000     -34.73900000     -68.83660000
H      -44.53420000     -36.16480000     -68.20330000
H      -45.65790000     -32.14030000     -68.10490000
H      -41.76450000     -33.18960000     -69.59010000
H      -42.26680000     -35.38160000     -69.31770000
C      -43.16840000     -30.94730000     -68.80620000
H      -42.11780000     -30.76420000     -68.92750000
H      -43.55300000     -30.45050000     -67.93870000
C      -46.57680000     -34.54620000     -67.57460000
H      -46.56390000     -35.60510000     -67.49480000
H      -46.82010000     -34.13570000     -66.63640000
S      -44.08340000     -29.96470000     -70.10920000
S      -47.81330000     -33.89760000     -68.78550000
C      -43.89420000     -31.00320000     -71.63690000
H      -43.61470000     -30.29030000     -72.37210000
H      -43.14880000     -31.79360000     -71.46280000
C      -47.15190000     -34.43240000     -70.42470000
H      -47.35770000     -35.44170000     -70.64090000
H      -46.09430000     -34.35580000     -70.51790000
C      -47.85120000     -33.66390000     -71.63140000
H      -48.94500000     -33.94410000     -71.66560000
H      -47.74020000     -32.57700000     -71.45650000
C      -45.29880000     -31.65760000     -72.03550000
H      -46.14260000     -30.93130000     -72.23360000
H      -45.66580000     -32.23030000     -71.17900000
C      -45.04990000     -32.50990000     -73.25710000
C      -44.06700000     -32.38580000     -74.15730000
C      -46.04230000     -33.53270000     -73.59610000
H      -43.30550000     -31.54250000     -74.21330000
C      -45.54550000     -34.40600000     -74.55300000
C      -47.15270000     -34.20240000     -72.88370000
C      -47.34070000     -35.48800000     -73.23250000
S      -44.06960000     -33.71340000     -75.30530000
S      -46.41390000     -35.90960000     -74.65510000
H      -48.20630000     -36.11730000     -72.80480000
