40
Properties=species:S:1:pos:R:3 #=T CELL(abcABC):=T 1.889726e+02=T 90.00000=T Traj:=T positionsangstrom=T Step:=T 0=T Bead:=T pbc="F F F"
C      -48.95570000     -33.81770000     -71.53880000
C      -48.75270000     -32.44760000     -71.79600000
C      -48.14340000     -32.06930000     -73.01210000
C      -47.57410000     -33.04950000     -73.81920000
C      -47.70670000     -34.44930000     -73.48590000
C      -48.38520000     -34.80500000     -72.34290000
H      -49.50090000     -34.07510000     -70.64510000
H      -48.13240000     -31.07430000     -73.30910000
H      -47.14220000     -35.12890000     -74.08080000
H      -48.51470000     -35.92270000     -72.13820000
C      -46.83510000     -32.66130000     -75.09150000
H      -47.47340000     -31.90800000     -75.64070000
H      -46.65700000     -33.47130000     -75.77460000
C      -49.12200000     -31.50050000     -70.65190000
H      -49.36320000     -30.53450000     -70.95210000
H      -50.02180000     -31.75360000     -70.04860000
S      -45.16760000     -31.76970000     -74.78070000
S      -47.51410000     -31.11300000     -69.76390000
C      -44.08590000     -33.02040000     -73.77120000
H      -43.98580000     -33.97950000     -74.33230000
H      -43.15660000     -32.37140000     -73.68030000
C      -46.53130000     -32.63990000     -69.22970000
H      -46.43080000     -33.42430000     -69.93440000
H      -46.96970000     -33.02750000     -68.28590000
C      -45.02240000     -32.10540000     -69.00000000
H      -44.85030000     -31.49860000     -69.89580000
H      -45.04870000     -31.61910000     -68.11680000
C      -44.73890000     -33.31890000     -72.40230000
H      -45.76110000     -33.67580000     -72.50180000
H      -45.03440000     -32.36060000     -71.90420000
C      -43.87810000     -34.25950000     -71.58000000
C      -43.11710000     -35.28990000     -72.15230000
C      -43.51990000     -34.07180000     -70.14200000
H      -43.15320000     -35.67360000     -73.13840000
C      -42.47390000     -34.90110000     -69.78550000
C      -43.99310000     -33.23470000     -69.02180000
C      -43.19110000     -33.39120000     -67.91650000
S      -41.96240000     -35.98250000     -71.05530000
S      -42.05190000     -34.80270000     -68.08970000
H      -43.43470000     -32.93500000     -66.90680000
