40
Properties=species:S:1:pos:R:3 #=T CELL(abcABC):=T 1.889726e+02=T 90.00000=T Traj:=T positionsangstrom=T Step:=T 0=T Bead:=T pbc="F F F"
C      -48.96540000     -34.08210000     -71.53510000
C      -48.56220000     -32.79090000     -71.65130000
C      -47.97380000     -32.21770000     -72.79620000
C      -47.64210000     -33.02780000     -73.90840000
C      -48.00420000     -34.38580000     -73.78890000
C      -48.66330000     -34.84130000     -72.67160000
H      -49.63850000     -34.38460000     -70.76700000
H      -47.72860000     -31.17010000     -72.78910000
H      -47.79260000     -35.02570000     -74.68580000
H      -49.08930000     -35.82400000     -72.59530000
C      -46.97360000     -32.55180000     -75.18100000
H      -47.47240000     -31.66820000     -75.52860000
H      -47.00280000     -33.26880000     -75.92580000
C      -48.82450000     -31.91980000     -70.49470000
H      -49.50020000     -31.12000000     -70.77950000
H      -49.26450000     -32.41840000     -69.69100000
S      -45.14660000     -31.96540000     -74.84420000
S      -47.29800000     -31.06090000     -69.81110000
C      -44.43860000     -33.37920000     -73.86810000
H      -45.04650000     -34.21170000     -74.14830000
H      -43.36470000     -33.47770000     -74.13330000
C      -46.15130000     -32.43150000     -69.30090000
H      -46.30740000     -33.24860000     -70.01630000
H      -46.21480000     -32.72520000     -68.23960000
C      -44.82440000     -31.82280000     -69.50410000
H      -44.61820000     -31.47150000     -70.45740000
H      -44.53290000     -31.11030000     -68.71100000
C      -44.38600000     -33.04700000     -72.44920000
H      -45.39980000     -33.01810000     -71.89810000
H      -44.17860000     -31.99580000     -72.28410000
C      -43.46450000     -33.97120000     -71.64020000
C      -42.86280000     -35.14560000     -72.06000000
C      -43.34780000     -33.89310000     -70.17430000
H      -42.72350000     -35.54160000     -73.04950000
C      -42.59780000     -34.90340000     -69.57730000
C      -43.77210000     -32.93550000     -69.21950000
C      -43.58570000     -33.27680000     -67.89630000
S      -42.10110000     -36.06910000     -70.82990000
S      -42.55010000     -34.72710000     -67.79300000
H      -43.79170000     -32.72230000     -67.02270000
