40
Properties=species:S:1:pos:R:3 #=T CELL(abcABC):=T 1.889726e+02=T 90.00000=T Traj:=T positionsangstrom=T Step:=T 0=T Bead:=T pbc="F F F"
C      -44.02620000     -35.25380000     -68.27040000
C      -44.72760000     -34.08860000     -67.94520000
C      -44.27150000     -32.81710000     -68.46170000
C      -43.01380000     -32.77340000     -69.14420000
C      -42.23820000     -33.94500000     -69.37660000
C      -42.79000000     -35.15740000     -68.97110000
H      -44.37750000     -36.18970000     -67.79470000
H      -44.78150000     -31.88540000     -68.35410000
H      -41.39210000     -33.93400000     -70.08380000
H      -42.24050000     -36.06720000     -69.25090000
C      -42.47500000     -31.43520000     -69.55630000
H      -41.48600000     -31.63060000     -70.06640000
H      -42.12450000     -30.96150000     -68.65020000
C      -46.10960000     -34.11200000     -67.24360000
H      -46.28540000     -35.15510000     -66.90460000
H      -46.18170000     -33.63630000     -66.28950000
S      -43.60580000     -30.07980000     -70.30850000
S      -47.51260000     -33.46550000     -68.28110000
C      -43.86300000     -30.86160000     -71.95880000
H      -44.44100000     -30.17070000     -72.58560000
H      -42.85670000     -30.97140000     -72.50260000
C      -47.14290000     -34.20090000     -69.96130000
H      -47.47170000     -35.20740000     -69.95680000
H      -46.13070000     -34.32270000     -70.18090000
C      -47.83090000     -33.42860000     -71.19790000
H      -48.94200000     -33.45670000     -71.30180000
H      -47.58080000     -32.33870000     -71.13910000
C      -44.76060000     -32.18930000     -71.82190000
H      -45.67630000     -31.69330000     -71.38320000
H      -44.28520000     -32.90260000     -71.10390000
C      -44.99410000     -32.90010000     -73.12950000
C      -44.07540000     -33.05360000     -74.15380000
C      -46.16360000     -33.69280000     -73.37050000
H      -43.14490000     -32.62230000     -74.18130000
C      -46.10790000     -34.36870000     -74.59520000
C      -47.40320000     -33.88150000     -72.56190000
C      -48.26320000     -34.71960000     -73.29450000
S      -44.69460000     -34.07730000     -75.48030000
S      -47.60590000     -35.23440000     -74.84110000
H      -49.27230000     -35.08500000     -73.16480000
