40
Properties=species:S:1:pos:R:3 #=T CELL(abcABC):=T 1.889726e+02=T 90.00000=T Traj:=T positionsangstrom=T Step:=T 0=T Bead:=T pbc="F F F"
C      -45.62270000     -32.46190000     -75.14880000
C      -46.73430000     -32.52260000     -74.34940000
C      -47.23260000     -33.78300000     -73.89860000
C      -46.53570000     -34.95740000     -74.30150000
C      -45.37860000     -34.84100000     -75.03260000
C      -44.91790000     -33.60830000     -75.49620000
H      -45.32160000     -31.48220000     -75.46140000
H      -48.15100000     -33.85950000     -73.34010000
H      -44.84980000     -35.79210000     -75.24490000
H      -43.85990000     -33.48390000     -75.82490000
C      -46.94360000     -36.23080000     -73.75090000
H      -46.17120000     -36.99820000     -74.00610000
H      -47.86660000     -36.49560000     -74.27450000
C      -47.48970000     -31.30290000     -74.03340000
H      -46.95690000     -30.42450000     -74.28550000
H      -48.41120000     -31.26530000     -74.57260000
S      -47.31250000     -36.07210000     -72.03030000
S      -47.70920000     -31.15800000     -72.16570000
C      -45.71090000     -35.62680000     -71.16910000
H      -45.06920000     -36.43900000     -70.97020000
H      -45.20970000     -34.93450000     -71.85640000
C      -46.20390000     -31.79670000     -71.41760000
H      -45.39650000     -31.34350000     -71.90250000
H      -46.09800000     -32.85810000     -71.62100000
C      -46.20550000     -31.41260000     -69.88590000
H      -46.33040000     -30.36550000     -69.78500000
H      -46.99480000     -31.91000000     -69.31290000
C      -45.94150000     -34.91560000     -69.85720000
H      -46.44590000     -35.63800000     -69.25670000
H      -46.59430000     -34.08580000     -69.84030000
C      -44.66570000     -34.48430000     -69.24120000
C      -43.62370000     -35.35860000     -68.91670000
C      -44.22740000     -33.09020000     -69.12180000
H      -43.66740000     -36.43110000     -69.13340000
C      -42.91610000     -32.98750000     -68.72190000
C      -44.87340000     -31.76510000     -69.20880000
C      -43.99650000     -30.72340000     -68.96070000
S      -42.08770000     -34.50180000     -68.59940000
S      -42.35160000     -31.33600000     -68.47570000
H      -44.38790000     -29.75890000     -68.75040000
