40
Properties=species:S:1:pos:R:3 #=T CELL(abcABC):=T 1.889726e+02=T 90.00000=T Traj:=T positionsangstrom=T Step:=T 0=T Bead:=T pbc="F F F"
C      -45.64300000     -32.49780000     -74.89150000
C      -46.92900000     -32.52700000     -74.36220000
C      -47.48540000     -33.75160000     -73.95550000
C      -46.77330000     -34.93340000     -74.00670000
C      -45.59800000     -34.91390000     -74.72080000
C      -45.01180000     -33.70080000     -75.16320000
H      -45.14150000     -31.61310000     -75.20910000
H      -48.42250000     -33.67590000     -73.40360000
H      -45.03690000     -35.86320000     -74.85510000
H      -44.05110000     -33.79810000     -75.63250000
C      -47.38810000     -36.18880000     -73.48690000
H      -47.30430000     -37.01730000     -74.22700000
H      -48.48950000     -35.99910000     -73.54700000
C      -47.64300000     -31.22140000     -74.12100000
H      -47.07630000     -30.38970000     -74.62100000
H      -48.66760000     -31.16020000     -74.51300000
S      -47.17770000     -36.68610000     -71.69020000
S      -47.74420000     -30.86260000     -72.29880000
C      -45.59860000     -36.06820000     -71.10630000
H      -45.23370000     -36.94840000     -70.56290000
H      -44.96160000     -35.82070000     -72.02490000
C      -46.04310000     -31.06580000     -71.54960000
H      -45.39950000     -30.17410000     -71.80810000
H      -45.53110000     -31.87850000     -72.10120000
C      -46.04470000     -31.39650000     -70.02790000
H      -46.21310000     -30.47140000     -69.51940000
H      -46.91340000     -32.02740000     -69.74430000
C      -45.71580000     -34.79150000     -70.27880000
H      -46.49340000     -34.96400000     -69.48020000
H      -46.18480000     -34.00550000     -70.86010000
C      -44.49000000     -34.36430000     -69.63410000
C      -43.59270000     -35.30510000     -69.13160000
C      -44.06480000     -33.01430000     -69.44640000
H      -43.72020000     -36.31090000     -69.28560000
C      -42.78330000     -32.95880000     -68.84930000
C      -44.63610000     -31.73990000     -69.57170000
C      -43.80100000     -30.70680000     -69.14340000
S      -42.20890000     -34.53450000     -68.43420000
S      -42.28310000     -31.30910000     -68.46630000
H      -44.17730000     -29.74000000     -69.04600000
