40
Properties=species:S:1:pos:R:3 #=T CELL(abcABC):=T 1.889726e+02=T 90.00000=T Traj:=T positionsangstrom=T Step:=T 0=T Bead:=T pbc="F F F"
C      -45.51880000     -32.85920000     -74.44730000
C      -46.85930000     -32.65690000     -74.09610000
C      -47.52140000     -33.84020000     -73.81790000
C      -46.88060000     -35.14010000     -73.91160000
C      -45.64420000     -35.24700000     -74.49100000
C      -44.95260000     -34.06910000     -74.70540000
H      -44.99640000     -31.95490000     -74.77800000
H      -48.52580000     -33.68520000     -73.35160000
H      -45.15200000     -36.15720000     -74.67330000
H      -43.93280000     -34.23560000     -75.14910000
C      -47.68570000     -36.31180000     -73.32900000
H      -47.38170000     -37.23810000     -73.86740000
H      -48.74640000     -36.07810000     -73.47630000
C      -47.54360000     -31.32390000     -74.08260000
H      -47.05050000     -30.48760000     -74.57010000
H      -48.51760000     -31.50100000     -74.49340000
S      -47.30280000     -36.68700000     -71.47310000
S      -47.70150000     -30.58770000     -72.32970000
C      -45.66690000     -35.99090000     -71.10000000
H      -45.24960000     -36.60630000     -70.27450000
H      -44.94280000     -36.19090000     -71.94310000
C      -45.99350000     -30.94970000     -71.68570000
H      -45.21800000     -30.23910000     -71.95230000
H      -45.59440000     -31.85800000     -72.19150000
C      -45.99250000     -31.25170000     -70.23220000
H      -46.33960000     -30.37630000     -69.60980000
H      -46.69090000     -32.03470000     -69.95810000
C      -45.69850000     -34.52410000     -70.64680000
H      -46.55180000     -34.50980000     -69.98040000
H      -45.66770000     -33.73930000     -71.40430000
C      -44.42350000     -34.30120000     -69.94220000
C      -43.44890000     -35.17780000     -69.61350000
C      -44.12490000     -32.90640000     -69.47350000
H      -43.58730000     -36.26360000     -69.76920000
C      -42.90650000     -32.94310000     -68.86540000
C      -44.62640000     -31.58660000     -69.69260000
C      -43.74800000     -30.68360000     -69.14720000
S      -42.17900000     -34.46990000     -68.65730000
S      -42.27030000     -31.38830000     -68.48520000
H      -43.68040000     -29.59320000     -69.21280000
