40
Properties=species:S:1:pos:R:3 #=T CELL(abcABC):=T 1.889726e+02=T 90.00000=T Traj:=T positionsangstrom=T Step:=T 0=T Bead:=T pbc="F F F"
C      -45.35250000     -32.94550000     -74.62050000
C      -46.64330000     -32.75960000     -73.96910000
C      -47.32660000     -33.91510000     -73.51840000
C      -46.71770000     -35.16130000     -73.63060000
C      -45.47920000     -35.24790000     -74.30780000
C      -44.79380000     -34.16580000     -74.77920000
H      -44.67380000     -32.12660000     -74.93050000
H      -48.38560000     -33.88600000     -73.08720000
H      -45.00830000     -36.20200000     -74.35960000
H      -43.74870000     -34.22280000     -75.14860000
C      -47.30170000     -36.52920000     -73.12360000
H      -46.46440000     -37.26280000     -73.15240000
H      -48.10540000     -37.04110000     -73.60340000
C      -47.34890000     -31.45300000     -74.08710000
H      -46.76610000     -30.76270000     -74.61350000
H      -48.27490000     -31.45550000     -74.70140000
S      -47.82640000     -36.30390000     -71.39960000
S      -47.76740000     -30.79620000     -72.39760000
C      -46.14300000     -36.06240000     -70.57800000
H      -46.09630000     -36.67160000     -69.68910000
H      -45.36790000     -36.47100000     -71.23340000
C      -46.08260000     -31.05950000     -71.47100000
H      -45.50530000     -30.14220000     -71.72060000
H      -45.66660000     -31.86710000     -72.02060000
C      -46.25660000     -31.37430000     -69.95800000
H      -46.69560000     -30.50810000     -69.36060000
H      -46.99950000     -32.16240000     -69.82300000
C      -45.71510000     -34.60610000     -70.42230000
H      -46.36850000     -34.10750000     -69.68750000
H      -45.84770000     -34.09880000     -71.35660000
C      -44.37580000     -34.28400000     -69.94490000
C      -43.36540000     -35.17620000     -69.73420000
C      -44.01540000     -32.91040000     -69.68810000
H      -43.38030000     -36.28040000     -69.65650000
C      -42.69480000     -32.81060000     -69.27850000
C      -44.73620000     -31.68420000     -69.57220000
C      -43.95910000     -30.67750000     -69.12410000
S      -41.84400000     -34.33240000     -69.10500000
S      -42.36920000     -31.23350000     -68.70700000
H      -44.29050000     -29.71470000     -68.93570000
