40
Properties=species:S:1:pos:R:3 #=T CELL(abcABC):=T 1.889726e+02=T 90.00000=T Traj:=T positionsangstrom=T Step:=T 0=T Bead:=T pbc="F F F"
C      -45.07300000     -34.90060000     -68.49610000
C      -44.99620000     -33.54500000     -68.25030000
C      -43.88390000     -32.86490000     -68.66420000
C      -42.77130000     -33.44470000     -69.39980000
C      -42.81640000     -34.80130000     -69.55190000
C      -44.02280000     -35.51620000     -69.27440000
H      -46.08190000     -35.30810000     -68.23170000
H      -43.83470000     -31.82220000     -68.27220000
H      -42.04840000     -35.34490000     -70.06020000
H      -44.04080000     -36.58840000     -69.54200000
C      -41.52160000     -32.66850000     -69.80790000
H      -40.84230000     -33.27660000     -70.41260000
H      -40.95760000     -32.35270000     -68.91010000
C      -46.07130000     -32.88420000     -67.42440000
H      -46.78780000     -33.61890000     -67.00270000
H      -45.72210000     -32.19060000     -66.58860000
S      -41.98660000     -31.27030000     -70.93590000
S      -47.07620000     -31.74580000     -68.51050000
C      -42.80910000     -32.11570000     -72.33310000
H      -42.71800000     -31.51350000     -73.26500000
H      -42.32730000     -33.06990000     -72.47010000
C      -47.53260000     -33.02150000     -69.82490000
H      -48.45990000     -33.46150000     -69.53050000
H      -46.79940000     -33.81160000     -69.84460000
C      -47.64880000     -32.28750000     -71.20670000
H      -48.65430000     -31.75470000     -71.20790000
H      -46.91090000     -31.51380000     -71.18820000
C      -44.32830000     -32.19590000     -72.07360000
H      -44.83220000     -31.20360000     -72.19530000
H      -44.57060000     -32.70050000     -71.11580000
C      -44.92920000     -33.21960000     -73.05500000
C      -44.26660000     -33.99640000     -73.97740000
C      -46.35260000     -33.61910000     -73.04790000
H      -43.23680000     -33.90380000     -74.28520000
C      -46.72050000     -34.54750000     -74.05150000
C      -47.55920000     -33.25050000     -72.34760000
C      -48.70580000     -33.83730000     -72.81290000
S      -45.26950000     -35.07860000     -74.94570000
S      -48.43530000     -34.86180000     -74.24510000
H      -49.68430000     -33.57460000     -72.50560000
