40
Properties=species:S:1:pos:R:3 #=T CELL(abcABC):=T 1.889726e+02=T 90.00000=T Traj:=T positionsangstrom=T Step:=T 0=T Bead:=T pbc="F F F"
C      -46.78790000     -34.87560000     -74.02380000
C      -47.88080000     -34.84030000     -73.17460000
C      -48.42100000     -33.65390000     -72.71080000
C      -47.88210000     -32.44920000     -73.11710000
C      -46.85270000     -32.43470000     -74.07570000
C      -46.20530000     -33.61530000     -74.41160000
H      -46.48720000     -35.82830000     -74.51010000
H      -49.33940000     -33.60040000     -72.13920000
H      -46.54130000     -31.48370000     -74.36080000
H      -45.44650000     -33.67480000     -75.22330000
C      -48.44240000     -31.15470000     -72.61400000
H      -49.40470000     -31.27930000     -72.21680000
H      -48.60560000     -30.51870000     -73.49540000
C      -48.42970000     -36.14090000     -72.61340000
H      -49.56220000     -36.10490000     -72.66280000
H      -48.07130000     -37.03580000     -73.15360000
S      -47.38950000     -30.22620000     -71.39910000
S      -48.00840000     -36.24400000     -70.86540000
C      -46.10250000     -31.32800000     -70.70220000
H      -45.84180000     -30.92020000     -69.70430000
H      -46.52750000     -32.38810000     -70.67860000
C      -46.10310000     -35.89590000     -70.63350000
H      -45.60670000     -36.43310000     -71.44390000
H      -45.85950000     -36.57760000     -69.71010000
C      -45.60220000     -34.50660000     -70.43310000
H      -45.89780000     -33.86980000     -71.19370000
H      -46.20970000     -34.07510000     -69.62370000
C      -44.81150000     -31.29270000     -71.54070000
H      -44.52740000     -30.26720000     -71.85430000
H      -44.96460000     -31.81170000     -72.45580000
C      -43.55620000     -31.87950000     -70.88740000
C      -42.52950000     -31.02310000     -70.70970000
C      -43.27490000     -33.22960000     -70.41390000
H      -42.42220000     -30.00810000     -71.15350000
C      -41.95060000     -33.33600000     -70.01310000
C      -44.10700000     -34.42130000     -70.16410000
C      -43.32180000     -35.43140000     -69.67060000
S      -41.07280000     -31.81770000     -70.03280000
S      -41.62550000     -34.95260000     -69.33490000
H      -43.64070000     -36.48420000     -69.55600000
