40
Properties=species:S:1:pos:R:3 #=T CELL(abcABC):=T 1.889726e+02=T 90.00000=T Traj:=T positionsangstrom=T Step:=T 0=T Bead:=T pbc="F F F"
C      -45.32520000     -34.42480000     -67.26940000
C      -45.17300000     -33.13410000     -67.74920000
C      -44.03810000     -32.80850000     -68.46910000
C      -43.02590000     -33.73680000     -68.67290000
C      -43.20200000     -35.08820000     -68.16170000
C      -44.36090000     -35.42960000     -67.50990000
H      -46.29520000     -34.74720000     -66.79530000
H      -43.85360000     -31.74600000     -68.92090000
H      -42.44490000     -35.81590000     -68.37450000
H      -44.51070000     -36.46560000     -67.12550000
C      -41.72740000     -33.46080000     -69.30200000
H      -41.27180000     -34.41000000     -69.37580000
H      -41.05570000     -32.83880000     -68.70240000
C      -46.25850000     -32.06230000     -67.50960000
H      -47.09520000     -32.35610000     -66.90680000
H      -45.72790000     -31.30330000     -66.95660000
S      -41.79710000     -32.60150000     -70.92810000
S      -46.80060000     -31.14120000     -68.97600000
C      -43.17220000     -33.42210000     -71.69980000
H      -42.70460000     -34.37030000     -71.91430000
H      -43.92080000     -33.64770000     -70.94700000
C      -46.83700000     -32.45390000     -70.31240000
H      -47.70420000     -33.11950000     -70.24350000
H      -45.93170000     -33.01280000     -70.34700000
C      -46.80850000     -31.65700000     -71.64270000
H      -47.52530000     -30.79310000     -71.58590000
H      -45.84280000     -31.23880000     -71.76830000
C      -43.74700000     -32.83190000     -72.97440000
H      -42.91980000     -32.75010000     -73.65860000
H      -44.11340000     -31.78900000     -72.79520000
C      -44.77620000     -33.68940000     -73.57030000
C      -44.43410000     -34.62070000     -74.48720000
C      -46.20070000     -33.51620000     -73.43900000
H      -43.44620000     -34.91360000     -74.67950000
C      -46.87740000     -34.32350000     -74.35220000
C      -47.15280000     -32.58510000     -72.80610000
C      -48.45170000     -32.78050000     -73.21860000
S      -45.86810000     -35.38540000     -75.28780000
S      -48.55540000     -34.07140000     -74.43980000
H      -49.33030000     -32.19070000     -73.12440000
