40
Properties=species:S:1:pos:R:3 #=T CELL(abcABC):=T 1.889726e+02=T 90.00000=T Traj:=T positionsangstrom=T Step:=T 0=T Bead:=T pbc="F F F"
C      -45.44860000     -34.34010000     -67.18700000
C      -45.15460000     -33.07300000     -67.65970000
C      -43.94640000     -32.80610000     -68.26910000
C      -42.98250000     -33.87260000     -68.40110000
C      -43.32770000     -35.20870000     -67.90150000
C      -44.60890000     -35.44600000     -67.40300000
H      -46.42340000     -34.48290000     -66.58630000
H      -43.63530000     -31.85130000     -68.74190000
H      -42.53990000     -35.87850000     -67.87440000
H      -44.96140000     -36.50860000     -67.13840000
C      -41.75120000     -33.60710000     -69.13330000
H      -41.21620000     -34.57080000     -69.34970000
H      -41.03610000     -33.02060000     -68.55190000
C      -46.20190000     -31.96190000     -67.44260000
H      -47.08640000     -32.39020000     -66.82720000
H      -45.73260000     -31.15980000     -66.90640000
S      -41.92230000     -32.63440000     -70.78020000
S      -46.82740000     -31.17520000     -69.06080000
C      -43.18610000     -33.66480000     -71.70810000
H      -42.76770000     -34.63500000     -71.92630000
H      -44.14970000     -33.84020000     -71.13000000
C      -46.82050000     -32.43150000     -70.38480000
H      -47.80540000     -32.94100000     -70.44460000
H      -45.99600000     -33.18130000     -70.14030000
C      -46.64740000     -31.67380000     -71.72660000
H      -47.33370000     -30.79670000     -71.71230000
H      -45.67410000     -31.26060000     -71.73820000
C      -43.61650000     -32.88050000     -72.99380000
H      -42.82560000     -32.65250000     -73.62550000
H      -43.93590000     -31.85090000     -72.61540000
C      -44.72930000     -33.63860000     -73.66960000
C      -44.44040000     -34.59250000     -74.62530000
C      -46.17030000     -33.39920000     -73.70140000
H      -43.49840000     -34.94410000     -74.97450000
C      -46.83180000     -34.21710000     -74.61130000
C      -47.05810000     -32.57470000     -72.91850000
C      -48.36480000     -32.82110000     -73.13290000
S      -45.78050000     -35.33700000     -75.44540000
S      -48.59270000     -33.96160000     -74.48150000
H      -49.19700000     -32.25910000     -72.90940000
