40
Properties=species:S:1:pos:R:3 #=T CELL(abcABC):=T 1.889726e+02=T 90.00000=T Traj:=T positionsangstrom=T Step:=T 0=T Bead:=T pbc="F F F"
C      -44.83380000     -32.78330000     -74.67770000
C      -46.15820000     -33.24050000     -74.57010000
C      -46.39830000     -34.58430000     -74.18070000
C      -45.33880000     -35.41370000     -73.76870000
C      -44.02080000     -34.91470000     -73.86370000
C      -43.79300000     -33.62890000     -74.31250000
H      -44.68340000     -31.76840000     -75.11670000
H      -47.39150000     -35.03610000     -73.95470000
H      -43.15190000     -35.45060000     -73.64560000
H      -42.75090000     -33.22200000     -74.46880000
C      -45.57610000     -36.85540000     -73.40080000
H      -44.59970000     -37.42730000     -73.26120000
H      -46.14420000     -37.27440000     -74.19100000
C      -47.34610000     -32.30470000     -74.78960000
H      -46.99430000     -31.42670000     -75.28800000
H      -48.23920000     -32.73850000     -75.21710000
S      -46.57960000     -36.99380000     -71.86930000
S      -48.01990000     -31.85610000     -73.11220000
C      -45.44810000     -36.21010000     -70.63900000
H      -45.63570000     -36.64020000     -69.63930000
H      -44.43640000     -36.42710000     -70.98620000
C      -46.51590000     -31.33100000     -72.15480000
H      -46.38240000     -30.25480000     -72.39090000
H      -45.63180000     -31.85830000     -72.57500000
C      -46.81580000     -31.41950000     -70.68650000
H      -47.53280000     -30.58140000     -70.50840000
H      -47.27170000     -32.35380000     -70.50970000
C      -45.67360000     -34.74240000     -70.52360000
H      -46.76830000     -34.60280000     -70.25210000
H      -45.58670000     -34.32940000     -71.57900000
C      -44.75010000     -34.03300000     -69.54230000
C      -43.69810000     -34.57080000     -68.88800000
C      -44.81820000     -32.56790000     -69.31200000
H      -43.47940000     -35.63810000     -68.82850000
C      -43.82180000     -32.20010000     -68.42950000
C      -45.61850000     -31.43560000     -69.72700000
C      -45.15740000     -30.27310000     -69.11510000
S      -42.65140000     -33.45120000     -67.98830000
S      -43.67490000     -30.44280000     -68.20270000
H      -45.45640000     -29.21530000     -69.33380000
