40
Properties=species:S:1:pos:R:3 #=T CELL(abcABC):=T 1.889726e+02=T 90.00000=T Traj:=T positionsangstrom=T Step:=T 0=T Bead:=T pbc="F F F"
C      -44.20930000     -32.64700000     -74.40890000
C      -45.51460000     -33.10440000     -74.55600000
C      -45.81330000     -34.52150000     -74.51420000
C      -44.72910000     -35.39550000     -74.24590000
C      -43.39610000     -34.89270000     -74.06930000
C      -43.16080000     -33.51570000     -74.17010000
H      -44.03130000     -31.57690000     -74.57550000
H      -46.83090000     -34.93640000     -74.64540000
H      -42.65390000     -35.66540000     -73.86350000
H      -42.11360000     -33.14950000     -74.00340000
C      -44.87630000     -36.82280000     -73.92590000
H      -43.90550000     -37.35500000     -73.94910000
H      -45.46200000     -37.32240000     -74.60890000
C      -46.64800000     -32.22620000     -74.87320000
H      -46.40300000     -31.22540000     -75.15640000
H      -47.24130000     -32.68490000     -75.64340000
S      -45.62330000     -37.12060000     -72.21060000
S      -47.88660000     -32.10220000     -73.39700000
C      -44.65450000     -35.91530000     -71.10800000
H      -44.57200000     -36.40540000     -70.19490000
H      -43.77830000     -35.77370000     -71.74850000
C      -46.78380000     -31.44180000     -71.96700000
H      -46.77370000     -30.32220000     -71.97370000
H      -45.80950000     -31.78750000     -72.10970000
C      -47.41620000     -31.81300000     -70.62490000
H      -48.26500000     -31.10460000     -70.46260000
H      -47.91200000     -32.77180000     -70.69930000
C      -45.33640000     -34.58540000     -70.88290000
H      -46.41090000     -34.76680000     -70.58470000
H      -45.33760000     -34.01130000     -71.80320000
C      -44.69330000     -33.76330000     -69.84270000
C      -43.54620000     -34.10620000     -69.18750000
C      -45.31850000     -32.63740000     -69.15940000
H      -43.02330000     -35.01300000     -69.25330000
C      -44.59090000     -32.16830000     -68.10200000
C      -46.43000000     -31.70680000     -69.44890000
C      -46.50810000     -30.67350000     -68.55690000
S      -43.19150000     -33.03690000     -67.77940000
S      -45.16560000     -30.70970000     -67.32570000
H      -47.37770000     -30.01710000     -68.45000000
