40
Properties=species:S:1:pos:R:3 #=T CELL(abcABC):=T 1.889726e+02=T 90.00000=T Traj:=T positionsangstrom=T Step:=T 0=T Bead:=T pbc="F F F"
C      -42.50860000     -32.89960000     -73.60500000
C      -42.25970000     -32.15990000     -72.47140000
C      -41.99410000     -32.79390000     -71.26870000
C      -41.90560000     -34.18410000     -71.20190000
C      -41.99190000     -34.93710000     -72.37890000
C      -42.26280000     -34.30130000     -73.59540000
H      -42.73090000     -32.34810000     -74.51910000
H      -41.93810000     -32.18420000     -70.36510000
H      -41.53820000     -36.01440000     -72.44700000
H      -42.50060000     -34.77400000     -74.58030000
C      -41.61310000     -34.80120000     -69.84290000
H      -40.74870000     -34.17620000     -69.42150000
H      -41.30480000     -35.86900000     -69.79490000
C      -42.34230000     -30.62510000     -72.42690000
H      -41.50420000     -30.30720000     -71.88530000
H      -42.31810000     -30.12310000     -73.43230000
S      -43.03090000     -34.57840000     -68.49450000
S      -43.91370000     -30.09970000     -71.49070000
C      -44.61100000     -35.14170000     -69.25210000
H      -44.50490000     -35.92170000     -70.05870000
H      -45.15060000     -35.63030000     -68.44310000
C      -45.22600000     -31.20020000     -72.29680000
H      -44.80080000     -32.16020000     -72.57330000
H      -45.51230000     -30.63140000     -73.18780000
C      -46.51480000     -31.23490000     -71.29210000
H      -46.09940000     -31.51110000     -70.30230000
H      -46.91700000     -30.25160000     -71.27900000
C      -45.31490000     -34.00220000     -69.95050000
H      -44.81430000     -33.56170000     -70.83200000
H      -45.40440000     -33.12550000     -69.26210000
C      -46.75010000     -34.42720000     -70.35290000
C      -47.30800000     -35.66400000     -70.35130000
C      -47.65360000     -33.57080000     -71.16690000
H      -46.76370000     -36.54010000     -70.01390000
C      -48.88070000     -34.19960000     -71.56480000
C      -47.63300000     -32.21140000     -71.62000000
C      -48.67780000     -31.91130000     -72.43110000
S      -48.93670000     -35.93460000     -71.14650000
S      -49.81690000     -33.29210000     -72.62870000
H      -48.90820000     -30.91040000     -72.70140000
