40
Properties=species:S:1:pos:R:3 #=T CELL(abcABC):=T 1.889726e+02=T 90.00000=T Traj:=T positionsangstrom=T Step:=T 0=T Bead:=T pbc="F F F"
C      -44.27110000     -32.57850000     -75.23700000
C      -45.43520000     -33.31450000     -74.89880000
C      -45.28610000     -34.53260000     -74.36010000
C      -44.07590000     -35.08440000     -74.10360000
C      -42.89690000     -34.41310000     -74.43980000
C      -43.00260000     -33.17250000     -75.01470000
H      -44.13030000     -31.64050000     -75.70850000
H      -46.21820000     -35.12420000     -74.06970000
H      -41.94870000     -34.90220000     -74.13170000
H      -42.12820000     -32.58650000     -75.19030000
C      -44.01770000     -36.53110000     -73.81430000
H      -43.04520000     -36.93120000     -73.91280000
H      -44.70750000     -37.05440000     -74.45340000
C      -46.84560000     -32.70970000     -75.14560000
H      -46.62110000     -31.71250000     -75.62720000
H      -47.47610000     -33.31850000     -75.79730000
S      -44.79530000     -36.85830000     -72.15470000
S      -47.84670000     -32.56060000     -73.56090000
C      -44.15570000     -35.83360000     -70.83320000
H      -44.19340000     -36.38690000     -69.85370000
H      -43.06520000     -35.75080000     -71.00700000
C      -46.65720000     -31.87940000     -72.18480000
H      -46.56970000     -30.79950000     -72.32860000
H      -45.66330000     -32.19190000     -72.45970000
C      -47.41640000     -32.29410000     -70.90600000
H      -48.48410000     -31.83100000     -70.86420000
H      -47.62070000     -33.39830000     -70.95560000
C      -44.88740000     -34.52160000     -70.73200000
H      -45.92950000     -34.74310000     -70.84020000
H      -44.69840000     -33.92780000     -71.66170000
C      -44.69300000     -33.68550000     -69.43570000
C      -43.74270000     -34.01110000     -68.43030000
C      -45.51240000     -32.59150000     -69.06770000
H      -42.99830000     -34.72310000     -68.33760000
C      -45.17620000     -32.00830000     -67.80690000
C      -46.67060000     -31.84010000     -69.69190000
C      -47.11450000     -30.83020000     -68.86850000
S      -43.88420000     -32.90890000     -67.04210000
S      -46.14450000     -30.64240000     -67.37980000
H      -47.90150000     -30.08950000     -69.00440000
