40
Properties=species:S:1:pos:R:3 #=T CELL(abcABC):=T 1.889726e+02=T 90.00000=T Traj:=T positionsangstrom=T Step:=T 0=T Bead:=T pbc="F F F"
C      -44.14550000     -32.27050000     -74.95050000
C      -45.15190000     -33.20770000     -74.75120000
C      -44.86560000     -34.47320000     -74.18200000
C      -43.54140000     -34.91060000     -73.98540000
C      -42.54050000     -33.95420000     -74.42700000
C      -42.82450000     -32.67750000     -74.78680000
H      -44.38490000     -31.33330000     -75.45680000
H      -45.72980000     -35.09120000     -73.91500000
H      -41.51470000     -34.21730000     -74.22090000
H      -42.05450000     -31.93040000     -74.77120000
C      -43.21970000     -36.20110000     -73.25500000
H      -42.42320000     -35.95550000     -72.52980000
H      -42.79600000     -36.97800000     -73.93650000
C      -46.59310000     -32.78450000     -74.97330000
H      -46.61980000     -31.65520000     -75.13340000
H      -46.89190000     -33.25200000     -75.86790000
S      -44.64870000     -36.90720000     -72.42860000
S      -47.66720000     -33.13750000     -73.57110000
C      -44.44190000     -35.96630000     -70.72480000
H      -44.92550000     -36.69190000     -70.09190000
H      -43.38750000     -35.90270000     -70.45460000
C      -47.06250000     -32.04590000     -72.23870000
H      -47.20700000     -30.93560000     -72.50540000
H      -45.98730000     -32.08400000     -72.13370000
C      -47.76050000     -32.31240000     -70.96740000
H      -48.79070000     -31.89470000     -70.91850000
H      -47.87870000     -33.36030000     -70.88570000
C      -45.25780000     -34.62920000     -70.77020000
H      -46.30840000     -34.88890000     -70.89080000
H      -44.96140000     -34.11070000     -71.64800000
C      -45.10130000     -33.81490000     -69.43670000
C      -44.05710000     -34.00580000     -68.57090000
C      -45.93620000     -32.64780000     -69.03410000
H      -43.33190000     -34.82990000     -68.63490000
C      -45.39740000     -32.03460000     -67.87240000
C      -46.96450000     -31.91000000     -69.64570000
C      -47.29850000     -30.79570000     -68.90780000
S      -43.93590000     -32.82300000     -67.30230000
S      -46.31280000     -30.61070000     -67.48990000
H      -47.97760000     -30.01510000     -69.15960000
