40
Properties=species:S:1:pos:R:3 #=T CELL(abcABC):=T 1.889726e+02=T 90.00000=T Traj:=T positionsangstrom=T Step:=T 0=T Bead:=T pbc="F F F"
C      -43.88050000     -32.14740000     -74.95110000
C      -44.99590000     -33.01820000     -74.61350000
C      -44.72260000     -34.35980000     -74.23450000
C      -43.40160000     -34.77160000     -73.88370000
C      -42.36220000     -33.85880000     -74.11760000
C      -42.63840000     -32.58210000     -74.59320000
H      -44.11030000     -31.17030000     -75.24970000
H      -45.54820000     -35.14670000     -74.11400000
H      -41.32080000     -34.25150000     -73.96890000
H      -41.80980000     -31.94360000     -74.80500000
C      -43.14170000     -36.16380000     -73.37460000
H      -42.17120000     -36.18120000     -72.87740000
H      -43.10110000     -36.97440000     -74.13740000
C      -46.45370000     -32.58290000     -74.91440000
H      -46.50860000     -31.49060000     -74.96330000
H      -46.90600000     -32.99820000     -75.86950000
S      -44.54170000     -36.89120000     -72.27080000
S      -47.75950000     -33.14150000     -73.66510000
C      -44.51450000     -36.00840000     -70.67200000
H      -44.69080000     -36.82270000     -69.93930000
H      -43.49320000     -35.65630000     -70.45870000
C      -47.12500000     -32.16150000     -72.22390000
H      -47.26390000     -31.14980000     -72.54560000
H      -46.10720000     -32.51440000     -72.26280000
C      -47.87010000     -32.46500000     -70.97450000
H      -48.81520000     -31.94610000     -71.08490000
H      -48.05560000     -33.51670000     -70.93340000
C      -45.45010000     -34.78440000     -70.62360000
H      -46.49830000     -35.08870000     -70.60270000
H      -45.26090000     -34.23660000     -71.58800000
C      -45.10770000     -33.86910000     -69.52730000
C      -44.09980000     -34.04300000     -68.59220000
C      -45.91340000     -32.64460000     -69.25480000
H      -43.48790000     -34.89470000     -68.76950000
C      -45.40810000     -32.02050000     -68.07230000
C      -47.08940000     -32.02810000     -69.75110000
C      -47.49390000     -30.94130000     -68.99710000
S      -44.08570000     -32.85830000     -67.29020000
S      -46.35700000     -30.62760000     -67.59690000
H      -48.17170000     -30.14320000     -69.29130000
