40
Properties=species:S:1:pos:R:3 #=T CELL(abcABC):=T 1.889726e+02=T 90.00000=T Traj:=T positionsangstrom=T Step:=T 0=T Bead:=T pbc="F F F"
C      -43.89130000     -32.16910000     -74.41170000
C      -44.94390000     -33.09560000     -74.47100000
C      -44.66640000     -34.44240000     -74.10450000
C      -43.35610000     -34.79820000     -73.72490000
C      -42.34500000     -33.87470000     -73.67020000
C      -42.59910000     -32.51240000     -74.04340000
H      -43.98860000     -31.15340000     -74.83320000
H      -45.44480000     -35.17140000     -74.20340000
H      -41.34330000     -34.16590000     -73.46230000
H      -41.81800000     -31.73750000     -74.04650000
C      -43.13320000     -36.26460000     -73.37610000
H      -42.09390000     -36.51150000     -73.07970000
H      -43.18580000     -36.84460000     -74.31610000
C      -46.28070000     -32.69220000     -75.05410000
H      -46.17810000     -31.57250000     -75.38350000
H      -46.51480000     -33.23270000     -75.97170000
S      -44.34940000     -36.97570000     -72.17610000
S      -47.67210000     -33.00020000     -73.92480000
C      -44.27430000     -36.03650000     -70.59080000
H      -44.24570000     -36.75200000     -69.71150000
H      -43.23450000     -35.59110000     -70.54730000
C      -47.10830000     -32.12050000     -72.41310000
H      -47.42140000     -31.11400000     -72.49620000
H      -46.08590000     -32.11040000     -72.21260000
C      -47.92890000     -32.71080000     -71.14580000
H      -48.90280000     -32.31130000     -71.13530000
H      -48.03470000     -33.79600000     -71.04660000
C      -45.32370000     -34.95450000     -70.48790000
H      -46.28340000     -35.46170000     -70.28320000
H      -45.39800000     -34.48930000     -71.43430000
C      -45.07180000     -33.87520000     -69.45220000
C      -43.94730000     -33.76470000     -68.62890000
C      -46.01590000     -32.81390000     -69.25000000
H      -43.11490000     -34.46070000     -68.50830000
C      -45.66610000     -32.05610000     -68.14520000
C      -47.26400000     -32.17010000     -69.89160000
C      -47.61990000     -31.02130000     -69.24860000
S      -44.18490000     -32.59150000     -67.39120000
S      -46.66860000     -30.57440000     -67.84700000
H      -48.63890000     -30.64600000     -69.40250000
