40
Properties=species:S:1:pos:R:3 #=T CELL(abcABC):=T 1.889726e+02=T 90.00000=T Traj:=T positionsangstrom=T Step:=T 0=T Bead:=T pbc="F F F"
C      -43.87370000     -32.26180000     -74.31610000
C      -44.86550000     -33.18210000     -74.56120000
C      -44.57640000     -34.51250000     -74.26150000
C      -43.34930000     -34.86880000     -73.65760000
C      -42.35140000     -33.92410000     -73.48340000
C      -42.62760000     -32.60170000     -73.75100000
H      -44.09180000     -31.24020000     -74.41110000
H      -45.32730000     -35.27360000     -74.34150000
H      -41.42630000     -34.16000000     -73.12970000
H      -41.93040000     -31.83390000     -73.39640000
C      -43.09280000     -36.30920000     -73.20420000
H      -42.14180000     -36.30810000     -72.71070000
H      -42.98460000     -36.95820000     -74.13880000
C      -46.18900000     -32.73510000     -75.16530000
H      -46.34780000     -31.65360000     -75.51320000
H      -46.26050000     -33.31590000     -76.01540000
S      -44.30230000     -37.07370000     -72.00810000
S      -47.73810000     -32.89450000     -74.05960000
C      -44.15710000     -35.81230000     -70.57900000
H      -44.08180000     -36.41890000     -69.68950000
H      -43.14460000     -35.42280000     -70.72180000
C      -47.12550000     -32.20150000     -72.50040000
H      -47.09980000     -31.08660000     -72.46330000
H      -46.06450000     -32.60300000     -72.44430000
C      -47.80960000     -32.83350000     -71.19870000
H      -48.94990000     -32.66060000     -71.23690000
H      -47.55860000     -33.90720000     -71.29880000
C      -45.22200000     -34.72490000     -70.58310000
H      -46.20670000     -35.21090000     -70.50300000
H      -45.14510000     -34.11280000     -71.55640000
C      -45.15640000     -33.82070000     -69.36830000
C      -44.16770000     -33.95930000     -68.40360000
C      -45.89930000     -32.60510000     -69.31850000
H      -43.50050000     -34.84390000     -68.14070000
C      -45.57100000     -31.78020000     -68.27570000
C      -47.15670000     -32.22760000     -69.97720000
C      -47.81220000     -31.27910000     -69.30590000
S      -44.20080000     -32.47450000     -67.40800000
S      -46.82880000     -30.57930000     -67.95720000
H      -48.61200000     -30.74550000     -69.74750000
