40
Properties=species:S:1:pos:R:3 #=T CELL(abcABC):=T 1.889726e+02=T 90.00000=T Traj:=T positionsangstrom=T Step:=T 0=T Bead:=T pbc="F F F"
C      -43.88680000     -32.36500000     -74.11940000
C      -44.75020000     -33.32010000     -74.66650000
C      -44.50170000     -34.67580000     -74.42550000
C      -43.49290000     -35.10970000     -73.58830000
C      -42.55120000     -34.13700000     -73.13440000
C      -42.74010000     -32.78740000     -73.44400000
H      -44.02610000     -31.28680000     -74.24980000
H      -45.15430000     -35.41470000     -74.88030000
H      -41.62100000     -34.46300000     -72.58370000
H      -42.04030000     -32.12690000     -73.09360000
C      -43.40830000     -36.55930000     -73.24300000
H      -42.33610000     -36.78510000     -73.31730000
H      -43.80570000     -37.24880000     -73.98310000
C      -45.98680000     -32.78620000     -75.30200000
H      -45.89160000     -31.69680000     -75.59370000
H      -46.24370000     -33.32100000     -76.34780000
S      -44.17340000     -37.13850000     -71.64070000
S      -47.53040000     -33.01310000     -74.16870000
C      -44.04090000     -35.68740000     -70.42900000
H      -44.01400000     -36.11570000     -69.38830000
H      -43.04880000     -35.16540000     -70.45280000
C      -46.91620000     -32.19850000     -72.66950000
H      -46.92090000     -31.07720000     -72.73990000
H      -45.89420000     -32.43840000     -72.38320000
C      -47.63960000     -32.56930000     -71.45310000
H      -48.69410000     -32.39260000     -71.70240000
H      -47.50330000     -33.68190000     -71.36550000
C      -45.14720000     -34.64090000     -70.58080000
H      -46.18150000     -35.12920000     -70.57510000
H      -45.06050000     -34.07210000     -71.47080000
C      -45.06630000     -33.66350000     -69.45770000
C      -44.28680000     -33.79040000     -68.33510000
C      -45.96620000     -32.51310000     -69.43770000
H      -43.39790000     -34.36620000     -68.29810000
C      -45.69240000     -31.68140000     -68.32260000
C      -47.11200000     -32.04890000     -70.15680000
C      -47.82640000     -31.06050000     -69.52780000
S      -44.35030000     -32.34380000     -67.37080000
S      -47.01850000     -30.55030000     -68.08690000
H      -48.85020000     -30.75680000     -69.75080000
