40
Properties=species:S:1:pos:R:3 #=T CELL(abcABC):=T 1.889726e+02=T 90.00000=T Traj:=T positionsangstrom=T Step:=T 0=T Bead:=T pbc="F F F"
C      -43.76740000     -32.49730000     -74.08960000
C      -44.68570000     -33.42280000     -74.56230000
C      -44.64640000     -34.76270000     -74.24070000
C      -43.56860000     -35.23710000     -73.46680000
C      -42.60520000     -34.33410000     -73.02560000
C      -42.62870000     -32.92300000     -73.37250000
H      -43.85360000     -31.41080000     -74.39640000
H      -45.40160000     -35.46470000     -74.61940000
H      -41.68420000     -34.65320000     -72.54970000
H      -41.97120000     -32.17000000     -72.95770000
C      -43.31840000     -36.69200000     -73.19910000
H      -42.24090000     -36.81450000     -73.05050000
H      -43.67800000     -37.39130000     -73.99360000
C      -45.84640000     -32.96870000     -75.39140000
H      -45.50510000     -32.07290000     -75.80970000
H      -46.20570000     -33.63090000     -76.21870000
S      -44.20300000     -37.12320000     -71.67200000
S      -47.38420000     -32.98830000     -74.32770000
C      -43.98380000     -35.72610000     -70.55430000
H      -44.08810000     -36.23430000     -69.58370000
H      -42.96160000     -35.46480000     -70.58790000
C      -47.01940000     -32.07580000     -72.70820000
H      -47.27390000     -31.04220000     -72.83560000
H      -45.93290000     -32.26680000     -72.63010000
C      -47.68980000     -32.67460000     -71.46470000
H      -48.74260000     -32.72570000     -71.43490000
H      -47.26910000     -33.67400000     -71.34800000
C      -45.01900000     -34.60490000     -70.57930000
H      -45.98990000     -35.16060000     -70.46720000
H      -44.95220000     -34.12150000     -71.53740000
C      -44.93890000     -33.51890000     -69.53580000
C      -44.07400000     -33.48730000     -68.47900000
C      -46.03870000     -32.46840000     -69.45860000
H      -43.26240000     -34.14670000     -68.40370000
C      -45.84270000     -31.70220000     -68.32510000
C      -47.23210000     -32.00040000     -70.14630000
C      -47.86540000     -30.92110000     -69.53850000
S      -44.59220000     -32.28810000     -67.22850000
S      -47.01290000     -30.44850000     -68.09010000
H      -48.74320000     -30.34210000     -69.97560000
