40
Properties=species:S:1:pos:R:3 #=T CELL(abcABC):=T 1.889726e+02=T 90.00000=T Traj:=T positionsangstrom=T Step:=T 0=T Bead:=T pbc="F F F"
C      -46.49700000     -35.47180000     -72.75710000
C      -47.29370000     -34.93290000     -71.69310000
C      -47.66690000     -33.54570000     -71.73080000
C      -47.33920000     -32.73310000     -72.89480000
C      -46.63560000     -33.31210000     -73.98430000
C      -46.21850000     -34.65250000     -73.83410000
H      -46.10720000     -36.47290000     -72.63560000
H      -48.19630000     -33.01720000     -70.97320000
H      -46.36680000     -32.81250000     -74.90640000
H      -45.66220000     -34.99550000     -74.76220000
C      -47.71520000     -31.30580000     -72.78370000
H      -48.70060000     -31.32390000     -72.21380000
H      -48.00030000     -30.90140000     -73.75380000
C      -47.73540000     -35.93360000     -70.70180000
H      -48.72550000     -36.48280000     -70.73150000
H      -47.02690000     -36.78320000     -70.85710000
S      -46.45210000     -30.22200000     -71.93760000
S      -47.63520000     -35.20170000     -68.96060000
C      -46.19580000     -30.86870000     -70.22010000
H      -46.64950000     -30.12240000     -69.54840000
H      -46.68460000     -31.82750000     -70.04420000
C      -45.87380000     -35.38690000     -68.42880000
H      -45.49300000     -36.22500000     -69.00160000
H      -45.80090000     -35.65450000     -67.32750000
C      -44.90740000     -34.27230000     -68.72130000
H      -45.37760000     -33.29520000     -68.70310000
H      -44.02640000     -34.17030000     -67.99650000
C      -44.70330000     -30.88310000     -69.73440000
H      -44.71080000     -31.15720000     -68.71590000
H      -44.33310000     -29.84180000     -69.57610000
C      -43.84580000     -31.70990000     -70.66600000
C      -43.02700000     -31.07590000     -71.55500000
C      -43.68270000     -33.17760000     -70.76270000
H      -43.04290000     -29.97010000     -71.67270000
C      -42.94010000     -33.51760000     -71.90650000
C      -44.11490000     -34.34460000     -70.04190000
C      -43.71030000     -35.50900000     -70.60190000
S      -42.19010000     -32.18380000     -72.65870000
S      -42.82100000     -35.23550000     -72.07930000
H      -43.89140000     -36.55570000     -70.28590000
