40
Properties=species:S:1:pos:R:3 #=T CELL(abcABC):=T 1.889726e+02=T 90.00000=T Traj:=T positionsangstrom=T Step:=T 0=T Bead:=T pbc="F F F"
C      -44.26640000     -34.93170000     -68.25190000
C      -45.01640000     -33.79230000     -68.02120000
C      -46.32170000     -33.80570000     -68.52810000
C      -46.91520000     -34.87280000     -69.23970000
C      -46.08260000     -35.98370000     -69.47020000
C      -44.78080000     -35.98260000     -69.01370000
H      -43.23770000     -34.99960000     -67.94700000
H      -46.97210000     -32.86770000     -68.32580000
H      -46.51140000     -36.85680000     -69.98210000
H      -44.13350000     -36.85040000     -69.24770000
C      -48.36500000     -34.83870000     -69.56220000
H      -48.79010000     -33.80190000     -69.53010000
H      -48.82440000     -35.44290000     -68.80370000
C      -44.47860000     -32.58560000     -67.33140000
H      -45.03990000     -32.51820000     -66.46600000
H      -43.45560000     -32.83850000     -67.03780000
S      -48.79320000     -35.60250000     -71.23350000
S      -44.51110000     -30.85560000     -68.03810000
C      -47.37470000     -35.06580000     -72.21350000
H      -46.49270000     -35.47930000     -71.64370000
H      -47.24420000     -35.65580000     -73.18000000
C      -43.80890000     -31.07710000     -69.74870000
H      -42.87910000     -31.57720000     -69.71860000
H      -43.67780000     -30.08170000     -70.03330000
C      -44.75900000     -31.69920000     -70.77420000
H      -45.17570000     -32.61070000     -70.28020000
H      -45.66090000     -31.06020000     -70.87180000
C      -47.25810000     -33.57890000     -72.53790000
H      -47.14810000     -32.94760000     -71.63990000
H      -48.17060000     -33.29580000     -72.99450000
C      -46.07060000     -33.34140000     -73.50860000
C      -46.09240000     -33.87400000     -74.78140000
C      -44.83950000     -32.62050000     -73.23850000
H      -46.92720000     -34.40740000     -75.17420000
C      -44.00940000     -32.69500000     -74.29170000
C      -44.16070000     -31.98800000     -72.13430000
C      -42.90310000     -31.54420000     -72.41900000
S      -44.57220000     -33.57650000     -75.60430000
S      -42.39600000     -32.09930000     -74.02400000
H      -42.08100000     -31.28890000     -71.75200000
