40
Properties=species:S:1:pos:R:3 #=T CELL(abcABC):=T 1.889726e+02=T 90.00000=T Traj:=T positionsangstrom=T Step:=T 0=T Bead:=T pbc="F F F"
C      -44.12170000     -34.99290000     -68.28180000
C      -45.12250000     -34.00310000     -67.98570000
C      -46.45700000     -34.24220000     -68.27250000
C      -46.85540000     -35.37640000     -68.97360000
C      -45.90680000     -36.34640000     -69.27440000
C      -44.56170000     -36.14190000     -68.90470000
H      -43.15080000     -35.01060000     -67.75360000
H      -47.17690000     -33.43260000     -68.11830000
H      -46.17580000     -37.28060000     -69.77800000
H      -43.84980000     -36.88300000     -68.95260000
C      -48.30340000     -35.50850000     -69.32430000
H      -49.02060000     -34.81610000     -68.92550000
H      -48.67580000     -36.52760000     -69.15030000
C      -44.66570000     -32.71250000     -67.32100000
H      -45.10290000     -32.63200000     -66.30580000
H      -43.59230000     -32.70480000     -67.30000000
S      -48.59320000     -35.40080000     -71.23260000
S      -45.07520000     -31.09460000     -68.11330000
C      -46.97790000     -34.83390000     -72.06240000
H      -46.25120000     -34.96910000     -71.21300000
H      -46.81680000     -35.63890000     -72.79250000
C      -44.05370000     -31.16310000     -69.61720000
H      -43.17680000     -31.66240000     -69.26220000
H      -43.80640000     -30.11660000     -69.88920000
C      -44.71930000     -32.01520000     -70.67050000
H      -44.65830000     -33.07460000     -70.25350000
H      -45.79490000     -31.72280000     -70.91080000
C      -47.22450000     -33.40980000     -72.70960000
H      -47.30270000     -32.63020000     -71.95080000
H      -48.13680000     -33.36150000     -73.20270000
C      -46.05560000     -33.10150000     -73.67280000
C      -46.04630000     -33.56490000     -74.98890000
C      -44.75600000     -32.50280000     -73.35390000
H      -46.83070000     -33.94100000     -75.55340000
C      -43.91480000     -32.47490000     -74.41650000
C      -44.12110000     -31.97440000     -72.10900000
C      -42.90910000     -31.46840000     -72.38490000
S      -44.50580000     -33.29150000     -75.83650000
S      -42.39450000     -31.67370000     -74.04890000
H      -42.18600000     -31.05500000     -71.62390000
