40
Properties=species:S:1:pos:R:3 #=T CELL(abcABC):=T 1.889726e+02=T 90.00000=T Traj:=T positionsangstrom=T Step:=T 0=T Bead:=T pbc="F F F"
C      -46.46950000     -35.39940000     -72.17270000
C      -47.36330000     -34.73210000     -71.29160000
C      -47.75720000     -33.46870000     -71.64050000
C      -47.23070000     -32.80750000     -72.76540000
C      -46.48570000     -33.50060000     -73.66540000
C      -46.06490000     -34.79650000     -73.34670000
H      -46.18920000     -36.43560000     -72.01330000
H      -48.49820000     -32.92480000     -71.06750000
H      -46.17650000     -32.96530000     -74.54940000
H      -45.53770000     -35.28220000     -74.14390000
C      -47.70730000     -31.39160000     -73.03930000
H      -48.68070000     -31.28490000     -72.55520000
H      -47.69060000     -31.13390000     -74.09850000
C      -47.99210000     -35.46120000     -70.11240000
H      -49.01770000     -35.74510000     -70.33240000
H      -47.54580000     -36.41520000     -69.92360000
S      -46.65710000     -30.11240000     -72.18870000
S      -47.80400000     -34.45980000     -68.49190000
C      -46.08420000     -30.84030000     -70.62560000
H      -46.38250000     -30.17580000     -69.77920000
H      -46.45510000     -31.86680000     -70.53280000
C      -46.05450000     -34.88690000     -68.25440000
H      -45.98410000     -35.87440000     -68.62770000
H      -46.09430000     -34.97040000     -67.12760000
C      -44.92250000     -33.89590000     -68.69590000
H      -45.26140000     -32.88390000     -68.57520000
H      -44.14110000     -34.05790000     -67.88900000
C      -44.55930000     -30.88740000     -70.55850000
H      -44.25610000     -31.07790000     -69.52750000
H      -44.19670000     -29.90590000     -70.71980000
C      -43.81570000     -31.92670000     -71.39310000
C      -43.20660000     -31.55040000     -72.56030000
C      -43.65140000     -33.33750000     -71.03920000
H      -43.16190000     -30.50240000     -72.92460000
C      -42.84040000     -33.92310000     -71.99160000
C      -44.15840000     -34.21930000     -69.98170000
C      -43.57000000     -35.43570000     -70.20500000
S      -42.22470000     -32.79310000     -73.20880000
S      -42.47310000     -35.60040000     -71.62270000
H      -43.61230000     -36.25620000     -69.43850000
