40
Properties=species:S:1:pos:R:3 #=T CELL(abcABC):=T 1.889726e+02=T 90.00000=T Traj:=T positionsangstrom=T Step:=T 0=T Bead:=T pbc="F F F"
C      -46.61180000     -35.26270000     -72.03530000
C      -47.62030000     -34.56520000     -71.35830000
C      -47.85190000     -33.29140000     -71.80270000
C      -47.16080000     -32.72550000     -72.89050000
C      -46.16480000     -33.43940000     -73.48670000
C      -45.85080000     -34.71890000     -73.04190000
H      -46.47380000     -36.28280000     -71.62230000
H      -48.59370000     -32.68130000     -71.31360000
H      -45.61060000     -33.04640000     -74.33170000
H      -45.12920000     -35.38420000     -73.62480000
C      -47.56250000     -31.29910000     -73.26100000
H      -48.56910000     -31.22860000     -72.91280000
H      -47.43700000     -31.06710000     -74.26690000
C      -48.45980000     -35.09030000     -70.10420000
H      -49.50430000     -34.84670000     -70.23240000
H      -48.46770000     -36.19620000     -70.11080000
S      -46.74370000     -30.02460000     -72.09390000
S      -47.77890000     -34.33110000     -68.53200000
C      -45.97930000     -30.90140000     -70.60620000
H      -46.29410000     -30.37670000     -69.76460000
H      -46.35960000     -31.83500000     -70.52320000
C      -46.07460000     -35.02780000     -68.63960000
H      -46.15360000     -35.82520000     -69.43660000
H      -45.97510000     -35.56750000     -67.69600000
C      -45.01620000     -33.93170000     -68.83970000
H      -45.51130000     -32.98000000     -69.01480000
H      -44.42930000     -33.72290000     -67.90870000
C      -44.53090000     -30.95960000     -70.53490000
H      -44.28080000     -31.12520000     -69.43430000
H      -44.09780000     -30.01150000     -70.74600000
C      -43.84260000     -32.02870000     -71.39570000
C      -43.20890000     -31.69750000     -72.53280000
C      -43.58490000     -33.40750000     -71.05310000
H      -43.26220000     -30.78800000     -73.05030000
C      -42.75690000     -34.07780000     -71.96440000
C      -44.03310000     -34.23860000     -69.93450000
C      -43.45660000     -35.50440000     -70.11000000
S      -42.36960000     -33.03740000     -73.34550000
S      -42.30590000     -35.69750000     -71.39820000
H      -43.47730000     -36.31940000     -69.36470000
