40
Properties=species:S:1:pos:R:3 #=T CELL(abcABC):=T 1.889726e+02=T 90.00000=T Traj:=T positionsangstrom=T Step:=T 0=T Bead:=T pbc="F F F"
C      -47.01320000     -35.38670000     -72.16000000
C      -47.79730000     -34.54310000     -71.41160000
C      -47.89270000     -33.23130000     -71.92200000
C      -47.13310000     -32.74010000     -72.95140000
C      -46.29480000     -33.65790000     -73.61940000
C      -46.32510000     -34.98910000     -73.31940000
H      -47.04670000     -36.39680000     -71.79380000
H      -48.48160000     -32.50260000     -71.48380000
H      -45.68390000     -33.25500000     -74.43850000
H      -45.64060000     -35.66080000     -73.83610000
C      -47.29660000     -31.29440000     -73.29990000
H      -48.30380000     -30.99510000     -73.30160000
H      -46.92620000     -31.17420000     -74.31100000
C      -48.54590000     -35.01060000     -70.15860000
H      -49.60280000     -34.71810000     -70.28240000
H      -48.56580000     -36.06190000     -70.05500000
S      -46.38300000     -30.06150000     -72.24290000
S      -47.88280000     -34.31800000     -68.59810000
C      -46.00780000     -30.83930000     -70.64350000
H      -46.39870000     -30.12660000     -69.91390000
H      -46.47230000     -31.81550000     -70.53010000
C      -46.14650000     -34.98610000     -68.66000000
H      -46.17180000     -35.70220000     -69.44950000
H      -46.00460000     -35.67790000     -67.78280000
C      -45.09590000     -33.85880000     -68.79460000
H      -45.40430000     -32.89150000     -69.18420000
H      -44.70290000     -33.65930000     -67.81860000
C      -44.43730000     -30.94830000     -70.45410000
H      -44.21440000     -31.22110000     -69.49610000
H      -43.95290000     -30.02030000     -70.67390000
C      -43.83050000     -31.96820000     -71.40370000
C      -43.19010000     -31.66820000     -72.57520000
C      -43.60170000     -33.36310000     -70.92120000
H      -43.03080000     -30.71720000     -73.11480000
C      -42.77130000     -34.08690000     -71.81330000
C      -44.02330000     -34.21210000     -69.76450000
C      -43.32340000     -35.44390000     -69.87060000
S      -42.30270000     -33.06760000     -73.21910000
S      -42.25490000     -35.63050000     -71.20810000
H      -43.50720000     -36.37610000     -69.31120000
