40
Properties=species:S:1:pos:R:3 #=T CELL(abcABC):=T 1.889726e+02=T 90.00000=T Traj:=T positionsangstrom=T Step:=T 0=T Bead:=T pbc="F F F"
C      -46.93060000     -35.35520000     -72.12440000
C      -47.71740000     -34.45980000     -71.40740000
C      -47.80670000     -33.14330000     -71.84530000
C      -47.21080000     -32.69210000     -73.02020000
C      -46.42020000     -33.60820000     -73.71320000
C      -46.28910000     -34.96420000     -73.31240000
H      -46.85710000     -36.38300000     -71.71460000
H      -48.48360000     -32.38060000     -71.38020000
H      -45.95660000     -33.26240000     -74.63590000
H      -45.95410000     -35.65020000     -74.07090000
C      -47.29500000     -31.21160000     -73.45230000
H      -48.31780000     -30.88670000     -73.27460000
H      -46.98030000     -31.08020000     -74.46620000
C      -48.56960000     -34.95960000     -70.23720000
H      -49.57890000     -34.62520000     -70.38710000
H      -48.60800000     -36.06320000     -70.20070000
S      -46.27950000     -30.01380000     -72.41330000
S      -47.92620000     -34.33930000     -68.65290000
C      -46.00540000     -30.74890000     -70.81230000
H      -46.51420000     -30.15920000     -70.00990000
H      -46.48800000     -31.75870000     -70.64130000
C      -46.24040000     -35.04640000     -68.61490000
H      -46.14700000     -35.73440000     -69.43780000
H      -45.99860000     -35.52380000     -67.72850000
C      -45.05770000     -33.91410000     -68.72980000
H      -45.49640000     -32.93770000     -68.92670000
H      -44.64040000     -33.79430000     -67.70850000
C      -44.47370000     -30.85760000     -70.55880000
H      -44.40790000     -31.21350000     -69.49580000
H      -44.00630000     -29.89710000     -70.49180000
C      -43.75960000     -31.97510000     -71.26790000
C      -43.13040000     -31.68980000     -72.47140000
C      -43.58790000     -33.44020000     -70.82270000
H      -43.06340000     -30.80730000     -73.04500000
C      -42.77350000     -34.12910000     -71.72600000
C      -43.98120000     -34.25350000     -69.68240000
C      -43.43190000     -35.50360000     -69.75920000
S      -42.26320000     -33.12460000     -73.11290000
S      -42.34220000     -35.71920000     -71.16220000
H      -43.54510000     -36.30750000     -69.03990000
