40
Properties=species:S:1:pos:R:3 #=T CELL(abcABC):=T 1.889726e+02=T 90.00000=T Traj:=T positionsangstrom=T Step:=T 0=T Bead:=T pbc="F F F"
C      -47.05850000     -35.39470000     -72.19590000
C      -47.80590000     -34.52260000     -71.43190000
C      -47.90070000     -33.20470000     -71.89450000
C      -47.22910000     -32.69870000     -73.00250000
C      -46.28000000     -33.55700000     -73.62640000
C      -46.21540000     -34.89890000     -73.22970000
H      -47.11090000     -36.51390000     -72.00080000
H      -48.59340000     -32.58880000     -71.33980000
H      -45.55330000     -33.17930000     -74.38900000
H      -45.42430000     -35.58490000     -73.66680000
C      -47.40390000     -31.27700000     -73.49500000
H      -48.41050000     -30.87570000     -73.22040000
H      -47.34530000     -31.13500000     -74.58810000
C      -48.58130000     -35.00670000     -70.28080000
H      -49.60160000     -34.63130000     -70.28380000
H      -48.53570000     -36.08080000     -70.26530000
S      -46.06410000     -30.07160000     -72.75670000
S      -47.93680000     -34.34370000     -68.54870000
C      -45.95460000     -30.62450000     -70.94470000
H      -46.34000000     -29.80040000     -70.37620000
H      -46.72610000     -31.41540000     -70.87870000
C      -46.16560000     -34.97560000     -68.60190000
H      -46.20010000     -35.64960000     -69.49090000
H      -45.93870000     -35.65350000     -67.69020000
C      -45.17850000     -33.78590000     -68.81150000
H      -45.67660000     -33.05680000     -69.39710000
H      -44.85190000     -33.43900000     -67.84540000
C      -44.56890000     -30.91320000     -70.46090000
H      -44.68470000     -31.32250000     -69.45510000
H      -44.07610000     -29.93200000     -70.30870000
C      -43.79220000     -31.97660000     -71.22540000
C      -43.12640000     -31.70960000     -72.40290000
C      -43.53880000     -33.37040000     -70.73300000
H      -43.17320000     -30.81140000     -73.00530000
C      -42.67830000     -34.06310000     -71.53050000
C      -44.01360000     -34.23690000     -69.65920000
C      -43.62420000     -35.52380000     -69.79930000
S      -42.14840000     -33.14090000     -72.97620000
S      -42.46870000     -35.73780000     -71.12940000
H      -43.75900000     -36.23570000     -68.99740000
