40
Properties=species:S:1:pos:R:3 #=T CELL(abcABC):=T 1.889726e+02=T 90.00000=T Traj:=T positionsangstrom=T Step:=T 0=T Bead:=T pbc="F F F"
C      -46.89430000     -35.45240000     -71.73180000
C      -47.91840000     -34.62780000     -71.34130000
C      -48.10620000     -33.33520000     -71.96080000
C      -47.17610000     -32.91820000     -72.89270000
C      -46.19300000     -33.84860000     -73.29690000
C      -46.00750000     -35.10190000     -72.77210000
H      -46.86140000     -36.46890000     -71.39310000
H      -48.90840000     -32.63190000     -71.66680000
H      -45.48360000     -33.50810000     -73.97740000
H      -45.25200000     -35.70100000     -73.13100000
C      -47.23910000     -31.53460000     -73.52250000
H      -48.20000000     -31.09250000     -73.20580000
H      -47.33730000     -31.60510000     -74.57780000
C      -48.82270000     -35.09140000     -70.24740000
H      -49.87120000     -34.73930000     -70.51970000
H      -48.78790000     -36.18060000     -70.02250000
S      -45.79510000     -30.46540000     -73.13020000
S      -48.45880000     -34.12940000     -68.74900000
C      -45.71800000     -30.62920000     -71.28840000
H      -46.31600000     -29.85820000     -70.83550000
H      -46.16720000     -31.59790000     -70.97870000
C      -46.63270000     -34.30360000     -68.55430000
H      -46.44430000     -35.40550000     -68.75960000
H      -46.45620000     -34.24530000     -67.47770000
C      -45.77780000     -33.43980000     -69.40540000
H      -46.37950000     -33.23760000     -70.28300000
H      -45.56070000     -32.47660000     -68.89760000
C      -44.33090000     -30.69010000     -70.78550000
H      -44.27580000     -30.57620000     -69.69710000
H      -43.80730000     -29.75490000     -71.05350000
C      -43.42310000     -31.85420000     -71.25880000
C      -42.31720000     -31.73730000     -72.07210000
C      -43.60810000     -33.22360000     -70.86790000
H      -42.00090000     -30.79570000     -72.58400000
C      -42.61150000     -34.06390000     -71.40260000
C      -44.47100000     -34.00920000     -69.98580000
C      -44.14000000     -35.37530000     -70.01640000
S      -41.49460000     -33.21420000     -72.44150000
S      -42.74810000     -35.73050000     -71.02080000
H      -44.51820000     -36.22400000     -69.43380000
