40
Properties=species:S:1:pos:R:3 #=T CELL(abcABC):=T 1.889726e+02=T 90.00000=T Traj:=T positionsangstrom=T Step:=T 0=T Bead:=T pbc="F F F"
C      -46.97760000     -35.60120000     -71.84600000
C      -47.94120000     -34.66540000     -71.44620000
C      -48.06330000     -33.46190000     -72.10420000
C      -47.14130000     -33.03350000     -73.03930000
C      -46.09180000     -33.93880000     -73.37990000
C      -46.08170000     -35.20010000     -72.84810000
H      -46.86420000     -36.60680000     -71.40350000
H      -48.86780000     -32.75910000     -71.90550000
H      -45.33120000     -33.72520000     -74.13850000
H      -45.29650000     -35.86580000     -73.11410000
C      -47.14950000     -31.67610000     -73.64500000
H      -48.07580000     -31.13660000     -73.50990000
H      -46.94100000     -31.79410000     -74.75990000
C      -48.91920000     -34.94120000     -70.34060000
H      -49.83330000     -34.70570000     -70.85350000
H      -49.02520000     -35.97920000     -70.04710000
S      -45.72310000     -30.59600000     -73.18750000
S      -48.56320000     -33.87780000     -68.78790000
C      -45.68860000     -30.54600000     -71.30920000
H      -46.16370000     -29.64830000     -70.93280000
H      -46.25690000     -31.38060000     -70.94840000
C      -46.72910000     -34.42830000     -68.54530000
H      -46.61320000     -35.43940000     -68.80050000
H      -46.57180000     -34.33570000     -67.45100000
C      -45.81100000     -33.44090000     -69.31390000
H      -46.44890000     -33.04960000     -70.07330000
H      -45.63160000     -32.52840000     -68.68580000
C      -44.25840000     -30.64980000     -70.74830000
H      -44.33430000     -30.67980000     -69.65870000
H      -43.75700000     -29.72770000     -71.07530000
C      -43.37090000     -31.83600000     -71.19350000
C      -42.32210000     -31.67570000     -72.02990000
C      -43.56940000     -33.24880000     -70.76770000
H      -41.98270000     -30.71170000     -72.37060000
C      -42.60770000     -34.04190000     -71.35420000
C      -44.55770000     -34.01920000     -69.96300000
C      -44.30450000     -35.35620000     -70.03160000
S      -41.35970000     -33.15980000     -72.31960000
S      -42.77040000     -35.70670000     -70.83630000
H      -44.83390000     -36.10880000     -69.45630000
