40
Properties=species:S:1:pos:R:3 #=T CELL(abcABC):=T 1.889726e+02=T 90.00000=T Traj:=T positionsangstrom=T Step:=T 0=T Bead:=T pbc="F F F"
C      -47.10170000     -35.58610000     -71.81830000
C      -48.08190000     -34.59270000     -71.52010000
C      -48.02780000     -33.34490000     -72.12750000
C      -47.08700000     -33.10080000     -73.16820000
C      -46.17950000     -34.12790000     -73.53840000
C      -46.14910000     -35.33510000     -72.82200000
H      -47.07120000     -36.53510000     -71.25300000
H      -48.67830000     -32.54030000     -71.78280000
H      -45.39200000     -33.98170000     -74.31470000
H      -45.45140000     -36.13350000     -73.19450000
C      -47.02400000     -31.71850000     -73.85930000
H      -47.91200000     -31.19260000     -73.57020000
H      -46.96120000     -31.74220000     -74.96930000
C      -48.97550000     -34.79100000     -70.38310000
H      -49.95590000     -34.40740000     -70.68710000
H      -49.04600000     -35.81540000     -69.96660000
S      -45.49410000     -30.70860000     -73.35610000
S      -48.44290000     -33.83000000     -68.83210000
C      -45.74730000     -30.53820000     -71.57150000
H      -46.06190000     -29.46580000     -71.40490000
H      -46.53790000     -31.25420000     -71.38330000
C      -46.73570000     -34.28400000     -68.59520000
H      -46.56410000     -35.25950000     -69.03520000
H      -46.61740000     -34.40290000     -67.48370000
C      -45.70590000     -33.30890000     -69.25950000
H      -46.08160000     -32.92900000     -70.18060000
H      -45.41190000     -32.44230000     -68.66430000
C      -44.41330000     -30.64870000     -70.72570000
H      -44.70590000     -30.59370000     -69.66550000
H      -43.81020000     -29.76000000     -70.99610000
C      -43.52230000     -31.87630000     -71.02830000
C      -42.43880000     -31.68150000     -71.83530000
C      -43.63000000     -33.28450000     -70.70390000
H      -42.14580000     -30.73660000     -72.16820000
C      -42.65160000     -34.05400000     -71.29450000
C      -44.52270000     -34.05400000     -69.91050000
C      -44.18570000     -35.36390000     -69.79430000
S      -41.45060000     -33.12260000     -72.15350000
S      -42.79230000     -35.73380000     -70.74130000
H      -44.85840000     -36.08050000     -69.41230000
