40
Properties=species:S:1:pos:R:3 #=T CELL(abcABC):=T 1.889726e+02=T 90.00000=T Traj:=T positionsangstrom=T Step:=T 0=T Bead:=T pbc="F F F"
C      -47.26090000     -35.47940000     -71.90440000
C      -48.00470000     -34.37530000     -71.46320000
C      -47.83850000     -33.13280000     -72.11520000
C      -46.93960000     -33.09820000     -73.19330000
C      -46.15070000     -34.19460000     -73.60270000
C      -46.32910000     -35.41510000     -72.95400000
H      -47.49190000     -36.44380000     -71.44210000
H      -48.41900000     -32.23800000     -71.79550000
H      -45.49420000     -34.09750000     -74.43400000
H      -45.75680000     -36.30850000     -73.21430000
C      -46.83210000     -31.76740000     -74.00740000
H      -47.74330000     -31.13430000     -73.74140000
H      -46.90800000     -31.85800000     -75.06170000
C      -49.05670000     -34.57580000     -70.36900000
H      -50.08130000     -34.25660000     -70.56610000
H      -49.12090000     -35.60280000     -70.05240000
S      -45.24640000     -30.93410000     -73.55210000
S      -48.64080000     -33.74040000     -68.66320000
C      -45.71580000     -30.64660000     -71.76380000
H      -46.22180000     -29.69900000     -71.67160000
H      -46.43200000     -31.37470000     -71.34830000
C      -46.90610000     -34.45890000     -68.54910000
H      -46.76580000     -35.51940000     -68.92930000
H      -46.78680000     -34.52670000     -67.47660000
C      -45.82180000     -33.45460000     -69.08650000
H      -46.34000000     -32.56270000     -69.55070000
H      -45.29020000     -33.04820000     -68.22220000
C      -44.46690000     -30.71190000     -70.82970000
H      -44.67260000     -30.74530000     -69.75530000
H      -43.96450000     -29.75480000     -70.86600000
C      -43.54400000     -31.85890000     -71.05920000
C      -42.43560000     -31.68950000     -71.83460000
C      -43.73590000     -33.23400000     -70.63660000
H      -42.09990000     -30.69440000     -72.08360000
C      -42.62520000     -33.97990000     -71.15000000
C      -44.66060000     -34.05370000     -69.90880000
C      -44.13230000     -35.33370000     -69.76840000
S      -41.48080000     -33.16520000     -72.09130000
S      -42.67830000     -35.61910000     -70.70770000
H      -44.62750000     -36.12730000     -69.24090000
