40
Properties=species:S:1:pos:R:3 #=T CELL(abcABC):=T 1.889726e+02=T 90.00000=T Traj:=T positionsangstrom=T Step:=T 0=T Bead:=T pbc="F F F"
C      -47.01990000     -35.43200000     -72.16090000
C      -47.95830000     -34.40100000     -72.10620000
C      -47.78810000     -33.29240000     -72.94320000
C      -46.65080000     -33.20810000     -73.76780000
C      -45.68580000     -34.24330000     -73.74760000
C      -45.94880000     -35.36330000     -73.02640000
H      -47.20030000     -36.38820000     -71.63850000
H      -48.56460000     -32.53130000     -72.98390000
H      -44.71850000     -34.14750000     -74.25430000
H      -45.38430000     -36.28870000     -73.04920000
C      -46.42260000     -32.00810000     -74.62710000
H      -47.39000000     -31.46260000     -74.61240000
H      -46.06060000     -32.35850000     -75.63760000
C      -49.02430000     -34.54180000     -71.05830000
H      -49.95790000     -34.45500000     -71.57430000
H      -48.94530000     -35.50860000     -70.58620000
S      -44.93410000     -31.07040000     -73.97860000
S      -48.88810000     -33.18710000     -69.77910000
C      -45.48890000     -30.90410000     -72.19560000
H      -46.13860000     -30.00740000     -72.12710000
H      -46.10380000     -31.79440000     -71.96510000
C      -47.37230000     -33.77180000     -68.76800000
H      -47.30820000     -34.81290000     -69.02150000
H      -47.66590000     -33.82280000     -67.67430000
C      -46.12220000     -32.95570000     -69.16590000
H      -46.41470000     -32.40610000     -70.13030000
H      -46.02470000     -32.09650000     -68.42900000
C      -44.45180000     -30.81010000     -71.08230000
H      -44.97960000     -30.61570000     -70.14700000
H      -43.88190000     -29.86290000     -71.36040000
C      -43.48610000     -31.97080000     -70.90970000
C      -42.27670000     -32.11200000     -71.59230000
C      -43.75180000     -33.26440000     -70.14340000
H      -41.78810000     -31.36270000     -72.20450000
C      -42.75120000     -34.16720000     -70.20060000
C      -44.90230000     -33.84450000     -69.40590000
C      -44.66250000     -35.06220000     -68.81120000
S      -41.42030000     -33.60510000     -71.20100000
S      -43.07360000     -35.64820000     -69.29330000
H      -45.35580000     -35.70390000     -68.24270000
