40
Properties=species:S:1:pos:R:3 #=T CELL(abcABC):=T 1.889726e+02=T 90.00000=T Traj:=T positionsangstrom=T Step:=T 0=T Bead:=T pbc="F F F"
C      -44.46520000     -33.62680000     -69.03880000
C      -45.72920000     -33.10440000     -68.81180000
C      -46.84090000     -33.81110000     -69.21340000
C      -46.73240000     -35.14370000     -69.64930000
C      -45.45020000     -35.60040000     -70.01480000
C      -44.31570000     -34.82630000     -69.70740000
H      -43.62490000     -33.06440000     -68.63020000
H      -47.81920000     -33.29460000     -69.10580000
H      -45.21700000     -36.52140000     -70.55630000
H      -43.38060000     -35.23500000     -69.89770000
C      -47.99470000     -35.90290000     -70.01600000
H      -48.57240000     -35.95330000     -69.09450000
H      -47.71360000     -36.93320000     -70.37020000
C      -45.88290000     -31.75450000     -68.28120000
H      -46.89880000     -31.32680000     -68.45670000
H      -45.93340000     -31.78190000     -67.19860000
S      -49.00470000     -35.10400000     -71.30540000
S      -44.72990000     -30.48540000     -68.76700000
C      -48.05070000     -34.92840000     -72.89520000
H      -47.43050000     -35.75870000     -73.08760000
H      -48.86600000     -34.85920000     -73.59970000
C      -45.37910000     -29.96190000     -70.52430000
H      -44.73580000     -29.19330000     -70.95040000
H      -46.28890000     -29.50450000     -70.25540000
C      -45.62280000     -31.16260000     -71.37960000
H      -46.33930000     -31.72810000     -70.80390000
H      -46.19170000     -30.87690000     -72.22560000
C      -47.05990000     -33.66150000     -72.93440000
H      -47.09830000     -33.13370000     -71.93980000
H      -47.49460000     -32.97880000     -73.71170000
C      -45.63300000     -34.00400000     -73.18210000
C      -45.11380000     -35.04530000     -73.89120000
C      -44.57720000     -33.10330000     -72.76920000
H      -45.62380000     -35.69530000     -74.66530000
C      -43.33160000     -33.50800000     -73.17750000
C      -44.42620000     -31.91950000     -71.97360000
C      -43.16520000     -31.45440000     -71.89340000
S      -43.36490000     -34.98480000     -74.09840000
S      -42.01940000     -32.41600000     -72.76470000
H      -42.87170000     -30.44620000     -71.48870000
