40
Properties=species:S:1:pos:R:3 #=T CELL(abcABC):=T 1.889726e+02=T 90.00000=T Traj:=T positionsangstrom=T Step:=T 0=T Bead:=T pbc="F F F"
C      -42.75810000     -34.38430000     -68.63380000
C      -42.42310000     -33.34690000     -69.53580000
C      -43.15920000     -32.11730000     -69.53680000
C      -44.16960000     -31.91030000     -68.56270000
C      -44.48020000     -32.95430000     -67.61810000
C      -43.85430000     -34.16390000     -67.72390000
H      -42.17020000     -35.26100000     -68.65550000
H      -42.87730000     -31.36580000     -70.23320000
H      -45.27460000     -32.62900000     -66.90230000
H      -44.15030000     -34.89850000     -66.94560000
C      -44.91660000     -30.62290000     -68.48290000
H      -44.47080000     -29.77880000     -69.04500000
H      -44.95600000     -30.27480000     -67.45730000
C      -41.24420000     -33.51850000     -70.48060000
H      -40.41070000     -32.84510000     -70.20730000
H      -40.99540000     -34.56250000     -70.51590000
S      -46.70600000     -30.63720000     -69.03150000
S      -41.51660000     -32.91860000     -72.18910000
C      -46.59750000     -31.65830000     -70.57030000
H      -47.49440000     -31.34010000     -71.01740000
H      -45.75400000     -31.43660000     -71.20050000
C      -42.75730000     -34.12070000     -72.93990000
H      -42.48710000     -35.21400000     -72.70550000
H      -42.65620000     -33.90280000     -74.00160000
C      -44.12620000     -33.77770000     -72.41010000
H      -44.34640000     -34.32160000     -71.49640000
H      -44.25590000     -32.72080000     -72.20220000
C      -46.68680000     -33.19570000     -70.24200000
H      -47.33580000     -33.28700000     -69.35420000
H      -45.62160000     -33.52580000     -69.90540000
C      -47.28390000     -33.89570000     -71.39670000
C      -48.65430000     -34.09750000     -71.40240000
C      -46.68190000     -34.16510000     -72.66700000
H      -49.38660000     -33.98760000     -70.54530000
C      -47.62230000     -34.62810000     -73.62660000
C      -45.31540000     -34.25630000     -73.26630000
C      -45.39040000     -34.68110000     -74.57020000
S      -49.29830000     -34.74400000     -72.94830000
S      -46.99620000     -35.14030000     -75.16080000
H      -44.53630000     -34.82310000     -75.24890000
