40
Properties=species:S:1:pos:R:3 #=T CELL(abcABC):=T 1.889726e+02=T 90.00000=T Traj:=T positionsangstrom=T Step:=T 0=T Bead:=T pbc="F F F"
C      -42.85500000     -34.22420000     -68.73500000
C      -42.48960000     -33.19830000     -69.62340000
C      -43.11700000     -31.94110000     -69.58120000
C      -44.12910000     -31.74860000     -68.60340000
C      -44.50140000     -32.79670000     -67.71030000
C      -43.80400000     -33.98700000     -67.78300000
H      -42.33180000     -35.10330000     -68.97460000
H      -42.84970000     -31.09780000     -70.19660000
H      -45.30670000     -32.63290000     -67.01550000
H      -44.02810000     -34.78940000     -67.14130000
C      -44.83710000     -30.42320000     -68.62490000
H      -44.39380000     -29.75330000     -69.37420000
H      -44.74210000     -30.01830000     -67.62210000
C      -41.36350000     -33.45550000     -70.57850000
H      -40.45760000     -32.89390000     -70.21630000
H      -41.15380000     -34.56080000     -70.45420000
S      -46.67490000     -30.67340000     -68.83110000
S      -41.51350000     -32.94670000     -72.35060000
C      -46.91270000     -31.66150000     -70.33260000
H      -47.92960000     -31.58200000     -70.73730000
H      -46.21570000     -31.26370000     -71.08150000
C      -42.77900000     -34.02350000     -73.09310000
H      -42.49840000     -35.02740000     -73.24050000
H      -42.88660000     -33.63240000     -74.10810000
C      -44.18050000     -33.88990000     -72.40290000
H      -44.14620000     -34.52680000     -71.54190000
H      -44.27410000     -32.85390000     -72.00950000
C      -46.57720000     -33.16850000     -70.21260000
H      -46.82830000     -33.64520000     -69.28680000
H      -45.50980000     -33.39580000     -70.29790000
C      -47.18300000     -33.94150000     -71.37720000
C      -48.55790000     -34.20290000     -71.33920000
C      -46.67960000     -34.36000000     -72.66890000
H      -49.21740000     -34.15380000     -70.51940000
C      -47.66670000     -34.84050000     -73.59680000
C      -45.37340000     -34.32960000     -73.21150000
C      -45.33020000     -34.79280000     -74.48470000
S      -49.27140000     -34.83660000     -72.83810000
S      -46.97540000     -35.18620000     -75.16000000
H      -44.44290000     -34.86730000     -75.09780000
