40
Properties=species:S:1:pos:R:3 #=T CELL(abcABC):=T 1.889726e+02=T 90.00000=T Traj:=T positionsangstrom=T Step:=T 0=T Bead:=T pbc="F F F"
C      -42.87180000     -34.15970000     -68.80010000
C      -42.41830000     -33.19080000     -69.69960000
C      -43.01050000     -31.88950000     -69.71550000
C      -44.06320000     -31.64280000     -68.75270000
C      -44.36710000     -32.62460000     -67.81660000
C      -43.75330000     -33.88550000     -67.80460000
H      -42.39360000     -35.15970000     -68.77700000
H      -42.70220000     -31.21670000     -70.52390000
H      -45.11360000     -32.37930000     -67.14090000
H      -44.11610000     -34.61540000     -67.13040000
C      -44.90240000     -30.39600000     -68.76960000
H      -44.74420000     -29.79750000     -69.71150000
H      -44.69940000     -29.65040000     -67.96620000
C      -41.36050000     -33.54320000     -70.69000000
H      -40.44310000     -33.18390000     -70.26700000
H      -41.20800000     -34.61840000     -70.87780000
S      -46.70840000     -30.74380000     -68.67940000
S      -41.51220000     -32.80640000     -72.38840000
C      -46.98120000     -31.67430000     -70.30250000
H      -48.09400000     -31.61100000     -70.37020000
H      -46.64340000     -31.12160000     -71.18550000
C      -42.78690000     -33.87900000     -73.20560000
H      -42.41320000     -34.92050000     -73.30150000
H      -42.79130000     -33.45270000     -74.26270000
C      -44.11670000     -33.80440000     -72.41780000
H      -44.03510000     -34.43840000     -71.49910000
H      -44.33970000     -32.77940000     -72.04370000
C      -46.67060000     -33.17530000     -70.19860000
H      -47.04390000     -33.44410000     -69.20030000
H      -45.65640000     -33.40060000     -70.23170000
C      -47.34140000     -33.92460000     -71.32720000
C      -48.66640000     -34.28740000     -71.32660000
C      -46.68790000     -34.28410000     -72.58680000
H      -49.28560000     -34.04000000     -70.52950000
C      -47.59400000     -34.95720000     -73.47550000
C      -45.36090000     -34.24460000     -73.16930000
C      -45.38480000     -34.75710000     -74.45000000
S      -49.24160000     -35.03170000     -72.85370000
S      -46.93880000     -35.34120000     -75.01470000
H      -44.56590000     -34.98230000     -75.09650000
