40
Properties=species:S:1:pos:R:3 #=T CELL(abcABC):=T 1.889726e+02=T 90.00000=T Traj:=T positionsangstrom=T Step:=T 0=T Bead:=T pbc="F F F"
C      -42.38140000     -34.23790000     -68.92330000
C      -42.24250000     -33.23530000     -69.89820000
C      -42.96860000     -32.09630000     -69.77870000
C      -43.99270000     -31.90610000     -68.87880000
C      -44.19650000     -32.93510000     -67.90410000
C      -43.40070000     -34.08380000     -67.94490000
H      -41.98250000     -35.19520000     -68.98060000
H      -42.85840000     -31.29570000     -70.54110000
H      -45.10790000     -32.99580000     -67.20490000
H      -43.59990000     -34.83310000     -67.19430000
C      -44.78090000     -30.59140000     -68.90600000
H      -44.48550000     -29.96330000     -69.77670000
H      -44.47910000     -30.00710000     -68.00610000
C      -41.26390000     -33.44010000     -71.00220000
H      -40.27130000     -33.13700000     -70.83450000
H      -41.18250000     -34.49840000     -71.26270000
S      -46.58210000     -30.66480000     -68.76510000
S      -41.54500000     -32.53290000     -72.60920000
C      -47.22910000     -31.56990000     -70.22860000
H      -48.31920000     -31.43760000     -70.33010000
H      -46.91030000     -31.22690000     -71.22950000
C      -43.05700000     -33.41460000     -73.26450000
H      -42.63140000     -34.45760000     -73.27860000
H      -43.14400000     -33.16520000     -74.33690000
C      -44.38180000     -33.23670000     -72.48970000
H      -44.27940000     -33.25770000     -71.40330000
H      -44.74250000     -32.17490000     -72.69290000
C      -46.88850000     -33.05430000     -70.08180000
H      -47.24800000     -33.36660000     -69.12160000
H      -45.81570000     -33.14040000     -69.91130000
C      -47.51700000     -34.02000000     -71.17880000
C      -48.80980000     -34.49260000     -71.17940000
C      -46.82270000     -34.36700000     -72.44710000
H      -49.49120000     -34.54260000     -70.25940000
C      -47.68980000     -34.99380000     -73.28240000
C      -45.51970000     -34.07330000     -73.04790000
C      -45.40420000     -34.63790000     -74.25130000
S      -49.31200000     -35.26370000     -72.65800000
S      -46.86030000     -35.48340000     -74.80300000
H      -44.48380000     -34.64140000     -74.83300000
