40
Properties=species:S:1:pos:R:3 #=T CELL(abcABC):=T 1.889726e+02=T 90.00000=T Traj:=T positionsangstrom=T Step:=T 0=T Bead:=T pbc="F F F"
C      -42.31420000     -34.03380000     -69.00950000
C      -42.41960000     -33.03080000     -69.99090000
C      -43.15930000     -31.84290000     -69.79260000
C      -43.99010000     -31.73520000     -68.69660000
C      -44.00880000     -32.79600000     -67.74130000
C      -43.12400000     -33.85920000     -67.87680000
H      -41.74860000     -34.96050000     -69.11630000
H      -43.22100000     -31.10820000     -70.61900000
H      -44.66260000     -32.75600000     -66.87010000
H      -43.16580000     -34.65520000     -67.09090000
C      -44.75530000     -30.51500000     -68.46140000
H      -44.46240000     -29.73410000     -69.23690000
H      -44.63390000     -30.19500000     -67.45630000
C      -41.48350000     -33.12750000     -71.21760000
H      -40.47970000     -32.93840000     -70.97400000
H      -41.49080000     -34.21210000     -71.62620000
S      -46.51390000     -30.95190000     -68.68130000
S      -41.86440000     -32.15990000     -72.77290000
C      -46.51260000     -31.93500000     -70.30360000
H      -47.49370000     -31.73730000     -70.85590000
H      -45.77720000     -31.51740000     -71.02120000
C      -43.26700000     -33.21870000     -73.51180000
H      -42.97470000     -34.28320000     -73.57270000
H      -43.19420000     -32.85300000     -74.48790000
C      -44.62510000     -33.07820000     -72.73410000
H      -44.56430000     -33.36650000     -71.70680000
H      -44.92390000     -32.01100000     -72.73030000
C      -46.43050000     -33.45700000     -70.08300000
H      -46.80930000     -33.78620000     -69.10570000
H      -45.40610000     -33.81620000     -70.10590000
C      -47.14550000     -34.33270000     -71.13410000
C      -48.41680000     -34.89050000     -70.83360000
C      -46.78480000     -34.46910000     -72.53050000
H      -48.96780000     -34.94470000     -69.95190000
C      -47.75880000     -35.15280000     -73.22260000
C      -45.69080000     -34.02170000     -73.31870000
C      -45.69200000     -34.50130000     -74.60100000
S      -49.18440000     -35.59490000     -72.31780000
S      -47.16440000     -35.38980000     -74.90290000
H      -44.98840000     -34.26740000     -75.34150000
