40
Properties=species:S:1:pos:R:3 #=T CELL(abcABC):=T 1.889726e+02=T 90.00000=T Traj:=T positionsangstrom=T Step:=T 0=T Bead:=T pbc="F F F"
C      -42.18960000     -33.75880000     -69.05200000
C      -42.25060000     -32.82540000     -70.11770000
C      -43.17840000     -31.76800000     -69.96440000
C      -44.01530000     -31.74030000     -68.85880000
C      -43.90100000     -32.63660000     -67.80640000
C      -42.93730000     -33.66230000     -67.90820000
H      -41.48710000     -34.64510000     -69.12960000
H      -43.30120000     -30.98040000     -70.72280000
H      -44.72060000     -32.58790000     -67.06230000
H      -42.65580000     -34.30770000     -67.03760000
C      -45.04060000     -30.63100000     -68.91790000
H      -45.16040000     -30.25740000     -69.92920000
H      -44.71260000     -29.79790000     -68.22580000
C      -41.35530000     -32.88290000     -71.32830000
H      -40.37560000     -32.45590000     -70.92000000
H      -41.05600000     -33.93810000     -71.42350000
S      -46.70100000     -31.23670000     -68.35410000
S      -41.87150000     -32.13190000     -72.98110000
C      -47.21520000     -32.40690000     -69.76570000
H      -48.27500000     -32.62020000     -69.63930000
H      -47.27020000     -31.72240000     -70.63430000
C      -43.29630000     -33.19870000     -73.44700000
H      -43.04810000     -34.20470000     -73.16350000
H      -43.32180000     -33.07490000     -74.51830000
C      -44.65640000     -32.86740000     -72.69000000
H      -44.65810000     -33.09480000     -71.60960000
H      -44.90180000     -31.81830000     -72.90300000
C      -46.49620000     -33.76830000     -69.84760000
H      -46.64730000     -34.32260000     -68.93450000
H      -45.40760000     -33.63900000     -69.84520000
C      -46.96700000     -34.61590000     -71.04840000
C      -47.97690000     -35.47980000     -70.85390000
C      -46.76800000     -34.31920000     -72.45110000
H      -48.29740000     -35.55030000     -69.82490000
C      -47.66400000     -35.12510000     -73.27420000
C      -45.83280000     -33.67100000     -73.27480000
C      -45.98010000     -33.83850000     -74.65150000
S      -48.74120000     -36.10010000     -72.31440000
S      -47.31150000     -34.94520000     -74.98380000
H      -45.21160000     -33.57380000     -75.29910000
