40
Properties=species:S:1:pos:R:3 #=T CELL(abcABC):=T 1.889726e+02=T 90.00000=T Traj:=T positionsangstrom=T Step:=T 0=T Bead:=T pbc="F F F"
C      -42.10220000     -33.52050000     -69.48450000
C      -42.32780000     -32.35340000     -70.21800000
C      -43.33010000     -31.49220000     -69.73870000
C      -44.13310000     -31.84920000     -68.67210000
C      -43.91110000     -33.07830000     -68.02910000
C      -42.80870000     -33.82140000     -68.36580000
H      -41.23230000     -34.14890000     -69.78540000
H      -43.50580000     -30.60120000     -70.32590000
H      -44.50600000     -33.35800000     -67.23630000
H      -42.50910000     -34.66080000     -67.73750000
C      -45.22910000     -30.90300000     -68.33690000
H      -45.28440000     -30.04100000     -69.01880000
H      -45.00510000     -30.29420000     -67.41350000
C      -41.46210000     -32.10170000     -71.45020000
H      -40.62370000     -31.51630000     -71.10720000
H      -40.88590000     -32.97730000     -71.77110000
S      -46.88180000     -31.65720000     -68.11160000
S      -42.27460000     -31.40640000     -72.96010000
C      -47.20090000     -32.56750000     -69.69790000
H      -48.26120000     -32.77130000     -69.63400000
H      -47.11280000     -31.94110000     -70.57700000
C      -43.49290000     -32.79840000     -73.21860000
H      -43.39770000     -33.65450000     -72.47500000
H      -43.46290000     -32.99570000     -74.28270000
C      -44.96670000     -32.47270000     -72.86010000
H      -45.17100000     -32.35170000     -71.79080000
H      -45.23720000     -31.55810000     -73.36780000
C      -46.33970000     -33.83380000     -69.92450000
H      -46.21100000     -34.45870000     -69.02030000
H      -45.33220000     -33.46350000     -70.06050000
C      -46.87210000     -34.71220000     -71.05280000
C      -47.88830000     -35.67050000     -70.82730000
C      -46.55860000     -34.50420000     -72.47310000
H      -48.28930000     -36.11600000     -69.92600000
C      -47.31150000     -35.39440000     -73.30820000
C      -45.85490000     -33.56380000     -73.30460000
C      -45.99500000     -33.80870000     -74.69850000
S      -48.35020000     -36.43860000     -72.36450000
S      -47.06210000     -35.26790000     -75.03800000
H      -45.51540000     -33.29530000     -75.55590000
