40
Properties=species:S:1:pos:R:3 #=T CELL(abcABC):=T 1.889726e+02=T 90.00000=T Traj:=T positionsangstrom=T Step:=T 0=T Bead:=T pbc="F F F"
C      -41.94490000     -33.28510000     -69.59760000
C      -42.39320000     -32.11550000     -70.24040000
C      -43.54690000     -31.53340000     -69.68200000
C      -44.20620000     -32.07810000     -68.54670000
C      -43.73620000     -33.23500000     -67.94240000
C      -42.56200000     -33.88270000     -68.45070000
H      -40.96550000     -33.73700000     -69.96270000
H      -43.92350000     -30.61500000     -70.15990000
H      -44.25850000     -33.76450000     -67.10140000
H      -42.08940000     -34.79490000     -68.04780000
C      -45.32200000     -31.22950000     -68.01040000
H      -45.54740000     -30.30860000     -68.47810000
H      -45.21020000     -30.97080000     -66.96540000
C      -41.51950000     -31.56940000     -71.36680000
H      -40.95990000     -30.71220000     -71.19100000
H      -40.71290000     -32.24740000     -71.61660000
S      -46.95300000     -32.12180000     -67.90500000
S      -42.50830000     -31.18760000     -72.85400000
C      -47.26550000     -32.62000000     -69.63410000
H      -48.31290000     -32.76510000     -69.75020000
H      -47.04900000     -31.75160000     -70.28740000
C      -43.54630000     -32.65370000     -73.06410000
H      -43.21760000     -33.27890000     -72.24170000
H      -43.41330000     -33.08850000     -74.04080000
C      -45.05280000     -32.33460000     -72.89830000
H      -45.27920000     -32.03610000     -71.88270000
H      -45.25630000     -31.43080000     -73.53640000
C      -46.39440000     -33.80160000     -70.01740000
H      -46.24230000     -34.45730000     -69.15030000
H      -45.39280000     -33.46680000     -70.24520000
C      -47.00560000     -34.58570000     -71.22750000
C      -47.83280000     -35.58860000     -71.04290000
C      -46.67440000     -34.45620000     -72.68010000
H      -48.28670000     -35.81560000     -70.04970000
C      -47.19870000     -35.44270000     -73.45840000
C      -45.89530000     -33.50110000     -73.37330000
C      -45.89970000     -33.79610000     -74.72570000
S      -48.29720000     -36.48860000     -72.52260000
S      -46.73680000     -35.30060000     -75.11040000
H      -45.24500000     -33.28760000     -75.44110000
