40
Properties=species:S:1:pos:R:3 #=T CELL(abcABC):=T 1.889726e+02=T 90.00000=T Traj:=T positionsangstrom=T Step:=T 0=T Bead:=T pbc="F F F"
C      -41.89000000     -33.24830000     -69.62840000
C      -42.37630000     -32.05090000     -70.13750000
C      -43.54590000     -31.50920000     -69.54890000
C      -44.20010000     -32.12100000     -68.50290000
C      -43.69800000     -33.26570000     -67.95890000
C      -42.52790000     -33.80230000     -68.53330000
H      -41.06160000     -33.73310000     -70.16630000
H      -43.83510000     -30.53980000     -69.94990000
H      -44.21890000     -33.78940000     -67.17040000
H      -42.00190000     -34.64440000     -68.05560000
C      -45.35000000     -31.37470000     -67.78240000
H      -45.31170000     -30.42120000     -68.33730000
H      -45.00760000     -31.39370000     -66.70300000
C      -41.58140000     -31.31380000     -71.18940000
H      -41.47480000     -30.30950000     -70.75120000
H      -40.58640000     -31.80530000     -71.42080000
S      -46.99440000     -32.08810000     -67.97880000
S      -42.53820000     -31.05770000     -72.70250000
C      -47.11700000     -32.57370000     -69.72380000
H      -48.19800000     -32.70840000     -69.88240000
H      -46.69270000     -31.82460000     -70.43160000
C      -43.53910000     -32.66050000     -72.91670000
H      -43.10760000     -33.46940000     -72.23850000
H      -43.34090000     -33.11590000     -73.89480000
C      -45.01420000     -32.40600000     -72.84690000
H      -45.46370000     -32.08280000     -71.86630000
H      -45.30140000     -31.61700000     -73.53110000
C      -46.44900000     -33.96750000     -70.02580000
H      -46.73450000     -34.66810000     -69.19050000
H      -45.36010000     -33.91740000     -70.16690000
C      -47.01330000     -34.67990000     -71.27590000
C      -47.83050000     -35.76610000     -71.16740000
C      -46.66120000     -34.39050000     -72.67580000
H      -48.09370000     -36.19690000     -70.14590000
C      -47.31290000     -35.35990000     -73.53970000
C      -45.77790000     -33.59090000     -73.39030000
C      -45.71820000     -34.00330000     -74.76170000
S      -48.32310000     -36.51240000     -72.73550000
S      -46.80360000     -35.26050000     -75.13100000
H      -45.04280000     -33.54450000     -75.50050000
