40
Properties=species:S:1:pos:R:3 #=T CELL(abcABC):=T 1.889726e+02=T 90.00000=T Traj:=T positionsangstrom=T Step:=T 0=T Bead:=T pbc="F F F"
C      -41.93510000     -33.13210000     -69.41310000
C      -42.31360000     -31.78650000     -69.71000000
C      -43.53960000     -31.29980000     -69.21530000
C      -44.34580000     -32.04300000     -68.33340000
C      -43.93510000     -33.35680000     -68.02800000
C      -42.78130000     -33.90070000     -68.56880000
H      -41.07260000     -33.59340000     -69.80800000
H      -43.90880000     -30.34020000     -69.56840000
H      -44.57350000     -33.94760000     -67.36000000
H      -42.66990000     -34.95980000     -68.44780000
C      -45.53960000     -31.34170000     -67.71230000
H      -45.60090000     -30.27990000     -68.10650000
H      -45.58270000     -31.07740000     -66.63610000
C      -41.59350000     -31.02050000     -70.78590000
H      -41.26130000     -30.01690000     -70.48280000
H      -40.63420000     -31.45270000     -71.14420000
S      -47.07920000     -32.33550000     -68.06890000
S      -42.76760000     -30.92290000     -72.26800000
C      -46.95670000     -32.83300000     -69.86140000
H      -48.03620000     -32.78740000     -70.20080000
H      -46.48210000     -32.01910000     -70.45790000
C      -43.38250000     -32.55110000     -72.83950000
H      -42.97640000     -33.38090000     -72.26870000
H      -43.02700000     -32.72500000     -73.92260000
C      -44.91490000     -32.51440000     -72.88840000
H      -45.30400000     -32.34120000     -71.90170000
H      -45.41870000     -31.66830000     -73.37860000
C      -46.32170000     -34.17560000     -70.14570000
H      -46.62220000     -34.80550000     -69.29900000
H      -45.23440000     -34.28990000     -70.10680000
C      -46.83510000     -34.87220000     -71.41880000
C      -47.72430000     -35.87610000     -71.34150000
C      -46.46290000     -34.57540000     -72.85670000
H      -48.22770000     -36.26080000     -70.50600000
C      -47.17160000     -35.39560000     -73.70000000
C      -45.55080000     -33.66460000     -73.53110000
C      -45.65550000     -33.81840000     -74.90220000
S      -48.23060000     -36.54700000     -72.95560000
S      -46.79060000     -35.10550000     -75.39120000
H      -45.22790000     -33.20980000     -75.69640000
