40
Properties=species:S:1:pos:R:3 #=T CELL(abcABC):=T 1.889726e+02=T 90.00000=T Traj:=T positionsangstrom=T Step:=T 0=T Bead:=T pbc="F F F"
C      -46.56180000     -36.32990000     -70.72870000
C      -45.32170000     -36.46510000     -71.29930000
C      -44.17800000     -36.08930000     -70.63200000
C      -44.28970000     -35.70990000     -69.27980000
C      -45.48000000     -35.69450000     -68.62860000
C      -46.65790000     -36.00310000     -69.38270000
H      -47.41850000     -36.60610000     -71.24150000
H      -43.19120000     -36.27310000     -71.07800000
H      -45.46610000     -35.25140000     -67.63910000
H      -47.65490000     -35.82350000     -68.89160000
C      -43.03020000     -35.23780000     -68.57040000
H      -42.24900000     -36.00360000     -68.70490000
H      -43.43650000     -35.18670000     -67.54540000
C      -45.31560000     -37.08490000     -72.72990000
H      -44.35990000     -37.52380000     -73.04080000
H      -46.06880000     -37.87200000     -72.82910000
S      -42.28900000     -33.72490000     -69.26940000
S      -45.90710000     -35.76400000     -73.94620000
C      -43.72770000     -32.62450000     -69.47810000
H      -44.53690000     -33.25950000     -69.81590000
H      -44.11040000     -32.19050000     -68.53630000
C      -44.45570000     -34.55940000     -74.08370000
H      -44.34200000     -34.13100000     -75.09110000
H      -43.47550000     -35.11020000     -74.06310000
C      -44.41060000     -33.41950000     -73.05150000
H      -44.07740000     -33.93200000     -72.16760000
H      -43.52930000     -32.74610000     -73.26210000
C      -43.40070000     -31.42620000     -70.41570000
H      -42.65870000     -31.57690000     -71.24360000
H      -42.93360000     -30.75000000     -69.73340000
C      -44.75350000     -30.80140000     -70.85010000
C      -45.23650000     -29.65580000     -70.25510000
C      -45.63630000     -31.42940000     -71.81710000
H      -44.72620000     -29.12740000     -69.44930000
C      -46.86440000     -30.72600000     -71.85670000
C      -45.60790000     -32.53930000     -72.85580000
C      -46.77350000     -32.57850000     -73.49470000
S      -46.87250000     -29.31820000     -70.72150000
S      -48.03940000     -31.41360000     -72.89760000
H      -47.10980000     -33.25920000     -74.23940000
