40
Properties=species:S:1:pos:R:3 #=T CELL(abcABC):=T 1.889726e+02=T 90.00000=T Traj:=T positionsangstrom=T Step:=T 0=T Bead:=T pbc="F F F"
C      -42.12820000     -33.39870000     -69.04440000
C      -42.53260000     -32.20720000     -69.70470000
C      -43.79770000     -31.71230000     -69.39210000
C      -44.60500000     -32.26370000     -68.40630000
C      -44.14200000     -33.33330000     -67.68460000
C      -42.87860000     -33.89820000     -68.00940000
H      -41.20560000     -33.87630000     -69.16920000
H      -44.26420000     -30.85760000     -69.79900000
H      -44.74670000     -33.70390000     -66.86830000
H      -42.60440000     -34.80500000     -67.54820000
C      -45.93970000     -31.60930000     -68.18140000
H      -46.17490000     -31.12680000     -69.10050000
H      -46.01990000     -30.98990000     -67.28160000
C      -41.65120000     -31.50440000     -70.73250000
H      -41.13030000     -30.70600000     -70.15460000
H      -40.97020000     -32.13550000     -71.26990000
S      -47.38460000     -32.82800000     -67.97360000
S      -42.69860000     -30.74360000     -72.05670000
C      -47.76910000     -33.36150000     -69.71840000
H      -48.51100000     -34.11980000     -69.56570000
H      -48.11460000     -32.60720000     -70.35830000
C      -43.56870000     -32.22970000     -72.67780000
H      -43.40250000     -32.99040000     -71.92270000
H      -43.17630000     -32.50460000     -73.67590000
C      -45.11090000     -32.01970000     -72.69700000
H      -45.43540000     -32.02630000     -71.61740000
H      -45.45280000     -31.00700000     -73.07770000
C      -46.55000000     -34.11040000     -70.29090000
H      -46.00100000     -34.59360000     -69.47510000
H      -45.85800000     -33.28140000     -70.45920000
C      -46.78500000     -34.82360000     -71.62190000
C      -47.19030000     -36.11750000     -71.67020000
C      -46.49000000     -34.26520000     -72.94410000
H      -47.49640000     -36.77720000     -70.81650000
C      -46.66290000     -35.21920000     -73.91840000
C      -45.85490000     -33.05730000     -73.49900000
C      -45.87920000     -33.03580000     -74.87590000
S      -47.26840000     -36.71210000     -73.28300000
S      -46.41650000     -34.58850000     -75.49260000
H      -45.58660000     -32.16670000     -75.42540000
