40
Properties=species:S:1:pos:R:3 #=T CELL(abcABC):=T 1.889726e+02=T 90.00000=T Traj:=T positionsangstrom=T Step:=T 0=T Bead:=T pbc="F F F"
C      -45.87850000     -35.62000000     -73.07400000
C      -46.75480000     -34.50270000     -73.02950000
C      -46.20950000     -33.27110000     -73.35930000
C      -44.91010000     -33.05510000     -73.65660000
C      -44.03580000     -34.16210000     -73.58000000
C      -44.48650000     -35.42230000     -73.25520000
H      -46.24940000     -36.59530000     -72.73420000
H      -46.88500000     -32.44560000     -73.35710000
H      -43.00170000     -33.89850000     -73.71560000
H      -43.80410000     -36.25750000     -73.28830000
C      -44.64080000     -31.69350000     -74.17250000
H      -45.60160000     -31.10940000     -74.37090000
H      -43.92850000     -31.55350000     -74.98820000
C      -48.19330000     -34.63190000     -72.74310000
H      -48.72750000     -34.72330000     -73.68830000
H      -48.42010000     -35.43750000     -71.98960000
S      -43.82360000     -30.93870000     -72.64490000
S      -48.84130000     -33.00250000     -71.98420000
C      -45.20010000     -30.55450000     -71.46290000
H      -45.58550000     -29.44890000     -71.63350000
H      -46.06090000     -31.28800000     -71.48020000
C      -48.66210000     -33.27230000     -70.14820000
H      -48.72280000     -34.39610000     -70.00360000
H      -49.55660000     -32.91990000     -69.64490000
C      -47.39710000     -32.70350000     -69.49940000
H      -46.98930000     -31.78390000     -69.91810000
H      -47.65560000     -32.49540000     -68.38660000
C      -44.46120000     -30.69950000     -70.11320000
H      -45.00340000     -30.16720000     -69.35530000
H      -43.48440000     -30.04650000     -70.23600000
C      -43.99910000     -32.10530000     -69.90190000
C      -42.70440000     -32.41650000     -70.14160000
C      -44.75380000     -33.28320000     -69.64530000
H      -41.98840000     -31.61500000     -70.36350000
C      -43.91260000     -34.39610000     -69.61460000
C      -46.15670000     -33.66940000     -69.46810000
C      -46.26050000     -35.04380000     -69.20370000
S      -42.22530000     -34.11170000     -70.08910000
S      -44.76730000     -35.89100000     -69.31660000
H      -47.05140000     -35.79250000     -69.14190000
