40
Properties=species:S:1:pos:R:3 #=T CELL(abcABC):=T 1.889726e+02=T 90.00000=T Traj:=T positionsangstrom=T Step:=T 0=T Bead:=T pbc="F F F"
C      -45.91560000     -35.44010000     -72.70460000
C      -46.86510000     -34.41260000     -73.01330000
C      -46.35760000     -33.21650000     -73.47220000
C      -44.96220000     -33.03130000     -73.75150000
C      -44.13640000     -34.14140000     -73.68570000
C      -44.60790000     -35.33900000     -73.14500000
H      -46.37990000     -36.43980000     -72.51570000
H      -46.97950000     -32.39020000     -73.55830000
H      -43.10910000     -34.03830000     -74.00230000
H      -44.02020000     -36.27150000     -73.02870000
C      -44.34030000     -31.64840000     -74.07020000
H      -45.13340000     -31.18690000     -74.57410000
H      -43.51420000     -31.74780000     -74.83620000
C      -48.31720000     -34.52290000     -72.63890000
H      -48.94060000     -34.83320000     -73.46870000
H      -48.36130000     -35.42340000     -72.01320000
S      -43.60440000     -30.46190000     -72.80890000
S      -49.06500000     -33.12800000     -71.79790000
C      -45.08290000     -30.40200000     -71.58200000
H      -45.39380000     -29.38720000     -71.43210000
H      -45.79730000     -30.99610000     -72.02990000
C      -48.64540000     -33.54460000     -70.02090000
H      -48.58100000     -34.64210000     -69.90040000
H      -49.52570000     -33.23030000     -69.43550000
C      -47.32630000     -32.98250000     -69.42550000
H      -47.20200000     -31.96780000     -69.85720000
H      -47.47120000     -32.71730000     -68.40100000
C      -44.76840000     -30.84770000     -70.05680000
H      -45.75970000     -30.76480000     -69.49770000
H      -44.08320000     -30.20130000     -69.54240000
C      -44.13770000     -32.19270000     -69.95540000
C      -42.77530000     -32.33190000     -70.02720000
C      -44.76290000     -33.44490000     -69.68590000
H      -42.04780000     -31.56680000     -70.17550000
C      -43.83040000     -34.50440000     -69.70390000
C      -46.16280000     -33.87290000     -69.54560000
C      -46.27410000     -35.27060000     -69.49690000
S      -42.19100000     -34.01130000     -70.00470000
S      -44.52970000     -36.04970000     -69.48110000
H      -47.15120000     -35.82240000     -69.22600000
