40
Properties=species:S:1:pos:R:3 #=T CELL(abcABC):=T 1.889726e+02=T 90.00000=T Traj:=T positionsangstrom=T Step:=T 0=T Bead:=T pbc="F F F"
C      -44.20200000     -32.59290000     -68.65330000
C      -43.36950000     -33.49090000     -69.36230000
C      -42.64880000     -33.00070000     -70.46310000
C      -42.81480000     -31.65270000     -70.89940000
C      -43.58930000     -30.74170000     -70.07370000
C      -44.24900000     -31.19960000     -68.95870000
H      -44.91300000     -32.98880000     -67.96910000
H      -41.99390000     -33.68880000     -70.97890000
H      -43.58640000     -29.66530000     -70.35060000
H      -44.80210000     -30.47040000     -68.39460000
C      -41.94770000     -31.04740000     -71.96440000
H      -40.87260000     -31.30150000     -72.05890000
H      -41.90790000     -29.91940000     -71.88790000
C      -43.30780000     -34.93000000     -68.87270000
H      -42.23940000     -35.16870000     -68.90390000
H      -43.67330000     -34.90080000     -67.80010000
S      -42.60720000     -31.34930000     -73.59540000
S      -44.19370000     -36.22990000     -69.83100000
C      -44.40120000     -31.27240000     -73.38280000
H      -44.60010000     -30.64100000     -72.42730000
H      -44.85590000     -30.64120000     -74.15600000
C      -44.06760000     -35.71970000     -71.61810000
H      -43.14090000     -36.15850000     -72.20460000
H      -43.84480000     -34.68550000     -71.48450000
C      -45.35550000     -35.96820000     -72.32830000
H      -45.13950000     -35.64760000     -73.38160000
H      -45.45950000     -37.00850000     -72.21790000
C      -44.98590000     -32.64670000     -73.09400000
H      -44.25060000     -33.04200000     -72.43010000
H      -44.94720000     -33.24710000     -74.01040000
C      -46.37330000     -32.72920000     -72.46360000
C      -47.29640000     -31.66790000     -72.37280000
C      -46.96670000     -33.93650000     -72.02670000
H      -47.01460000     -30.67090000     -72.69850000
C      -48.30020000     -33.74590000     -71.62640000
C      -46.55530000     -35.29690000     -71.74850000
C      -47.43890000     -36.04340000     -71.05830000
S      -48.93340000     -32.08790000     -71.80820000
S      -49.01890000     -35.17630000     -70.83440000
H      -47.41690000     -37.11510000     -71.02160000
