40
Properties=species:S:1:pos:R:3 #=T CELL(abcABC):=T 1.889726e+02=T 90.00000=T Traj:=T positionsangstrom=T Step:=T 0=T Bead:=T pbc="F F F"
C      -46.12850000     -34.98340000     -73.72180000
C      -47.04880000     -33.91700000     -73.60930000
C      -46.63810000     -32.56350000     -73.54040000
C      -45.27230000     -32.24210000     -73.56120000
C      -44.41230000     -33.30760000     -73.69830000
C      -44.80060000     -34.61830000     -73.74100000
H      -46.46940000     -36.04810000     -73.51290000
H      -47.39700000     -31.81270000     -73.57410000
H      -43.28480000     -33.13470000     -73.75180000
H      -43.97710000     -35.33720000     -73.83820000
C      -44.67240000     -30.83170000     -73.60110000
H      -45.23970000     -30.14900000     -74.28060000
H      -43.67950000     -30.95440000     -74.03480000
C      -48.57460000     -34.24410000     -73.53110000
H      -49.19410000     -33.59480000     -74.19360000
H      -48.85160000     -35.27110000     -73.75240000
S      -44.42530000     -29.83860000     -72.04670000
S      -49.37070000     -33.92940000     -71.85480000
C      -45.58670000     -30.66040000     -70.93840000
H      -46.44210000     -30.05830000     -70.82820000
H      -46.00020000     -31.53900000     -71.43400000
C      -48.06470000     -34.86070000     -70.83480000
H      -47.57660000     -35.55510000     -71.43930000
H      -48.49050000     -35.61170000     -70.07070000
C      -47.15330000     -33.90920000     -70.07320000
H      -47.16050000     -32.90620000     -70.58440000
H      -47.61870000     -33.76300000     -69.08410000
C      -45.01630000     -31.11790000     -69.55780000
H      -45.83100000     -31.28940000     -68.92480000
H      -44.47130000     -30.25540000     -69.14710000
C      -44.03700000     -32.38130000     -69.62930000
C      -42.70150000     -32.25110000     -69.45510000
C      -44.43900000     -33.79120000     -69.73770000
H      -42.27110000     -31.27020000     -69.37320000
C      -43.32480000     -34.63080000     -69.55380000
C      -45.73780000     -34.44850000     -69.90640000
C      -45.47500000     -35.78090000     -69.90520000
S      -41.80090000     -33.71910000     -69.43840000
S      -43.84090000     -36.34350000     -69.63160000
H      -46.18570000     -36.58360000     -70.18630000
