40
Properties=species:S:1:pos:R:3 #=T CELL(abcABC):=T 1.889726e+02=T 90.00000=T Traj:=T positionsangstrom=T Step:=T 0=T Bead:=T pbc="F F F"
C      -46.10710000     -34.74820000     -73.83880000
C      -47.06990000     -33.70560000     -73.64410000
C      -46.61740000     -32.41420000     -73.55860000
C      -45.25790000     -32.10210000     -73.66110000
C      -44.31400000     -33.14120000     -73.82180000
C      -44.72690000     -34.42450000     -73.84190000
H      -46.40020000     -35.74320000     -74.16780000
H      -47.37420000     -31.62620000     -73.40250000
H      -43.20610000     -32.83930000     -73.86170000
H      -44.11970000     -35.31050000     -74.04270000
C      -44.93830000     -30.61630000     -73.63580000
H      -45.72930000     -30.01870000     -74.03420000
H      -44.07510000     -30.36410000     -74.22130000
C      -48.55770000     -33.94980000     -73.66920000
H      -49.08840000     -33.12730000     -73.98740000
H      -48.76210000     -34.83120000     -74.30080000
S      -44.43210000     -30.03630000     -71.88880000
S      -49.30390000     -34.26880000     -71.94180000
C      -45.72420000     -30.58500000     -70.71300000
H      -46.23070000     -29.62620000     -70.38470000
H      -46.55980000     -31.17790000     -71.23240000
C      -47.97700000     -35.07640000     -70.85300000
H      -47.46020000     -35.57110000     -71.69400000
H      -48.47630000     -35.72820000     -70.16070000
C      -47.04370000     -34.04930000     -70.23300000
H      -46.84260000     -33.17990000     -70.90000000
H      -47.46000000     -33.69910000     -69.28010000
C      -45.12620000     -31.21000000     -69.43610000
H      -45.94440000     -31.44180000     -68.69880000
H      -44.51710000     -30.34330000     -68.88520000
C      -44.16550000     -32.40930000     -69.66440000
C      -42.85140000     -32.19420000     -69.36790000
C      -44.53260000     -33.81560000     -69.82360000
H      -42.38520000     -31.21140000     -69.23230000
C      -43.31910000     -34.55250000     -69.64560000
C      -45.69870000     -34.61160000     -69.97140000
C      -45.35710000     -35.91330000     -69.96610000
S      -41.94020000     -33.72770000     -69.17170000
S      -43.63210000     -36.25940000     -69.67060000
H      -46.04220000     -36.77570000     -70.08810000
