40
Properties=species:S:1:pos:R:3 #=T CELL(abcABC):=T 1.889726e+02=T 90.00000=T Traj:=T positionsangstrom=T Step:=T 0=T Bead:=T pbc="F F F"
C      -46.14100000     -34.54470000     -73.93590000
C      -47.19750000     -33.57420000     -73.68580000
C      -46.80200000     -32.21190000     -73.58990000
C      -45.43280000     -31.85810000     -73.70670000
C      -44.42600000     -32.84220000     -73.78470000
C      -44.76590000     -34.18780000     -73.96140000
H      -46.36980000     -35.57910000     -73.93220000
H      -47.50030000     -31.37130000     -73.42440000
H      -43.40420000     -32.53080000     -73.84430000
H      -44.08290000     -35.03460000     -73.97050000
C      -44.95600000     -30.39860000     -73.45230000
H      -45.87870000     -29.75420000     -73.45550000
H      -44.16390000     -30.03390000     -74.12750000
C      -48.56540000     -34.05860000     -73.72080000
H      -49.20750000     -33.34580000     -74.25930000
H      -48.53120000     -34.97870000     -74.40590000
S      -44.13670000     -30.28810000     -71.72720000
S      -49.31220000     -34.46930000     -72.05970000
C      -45.70680000     -30.85460000     -70.82820000
H      -46.33000000     -30.00980000     -70.70620000
H      -46.16750000     -31.58670000     -71.39570000
C      -47.91410000     -35.12980000     -71.07520000
H      -47.37640000     -35.97780000     -71.63820000
H      -48.30400000     -35.56940000     -70.19230000
C      -46.85900000     -34.09920000     -70.57860000
H      -46.63290000     -33.35860000     -71.27310000
H      -47.40370000     -33.51300000     -69.79330000
C      -45.41370000     -31.39740000     -69.41120000
H      -46.27790000     -31.91340000     -69.10000000
H      -45.19640000     -30.64890000     -68.71570000
C      -44.29920000     -32.48480000     -69.39380000
C      -43.03090000     -32.14970000     -69.01680000
C      -44.52770000     -33.87530000     -69.60970000
H      -42.56660000     -31.16450000     -68.91390000
C      -43.28900000     -34.53070000     -69.45460000
C      -45.62180000     -34.66410000     -69.99970000
C      -45.23600000     -35.96930000     -70.13590000
S      -41.93810000     -33.53750000     -69.15430000
S      -43.60140000     -36.23890000     -69.70810000
H      -45.92580000     -36.75640000     -70.23350000
