40
Properties=species:S:1:pos:R:3 #=T CELL(abcABC):=T 1.889726e+02=T 90.00000=T Traj:=T positionsangstrom=T Step:=T 0=T Bead:=T pbc="F F F"
C      -46.28420000     -34.45950000     -74.52740000
C      -47.25890000     -33.59210000     -74.02900000
C      -46.91110000     -32.19710000     -73.68240000
C      -45.59040000     -31.77430000     -73.68780000
C      -44.59480000     -32.73770000     -74.06740000
C      -44.90930000     -34.02590000     -74.50050000
H      -46.65580000     -35.43440000     -74.97520000
H      -47.67150000     -31.54350000     -73.26960000
H      -43.52620000     -32.54630000     -74.02470000
H      -44.17140000     -34.68620000     -74.92830000
C      -45.14970000     -30.41350000     -73.30170000
H      -45.89250000     -29.61700000     -73.45410000
H      -44.26850000     -30.17570000     -73.92450000
C      -48.74130000     -33.98060000     -73.95520000
H      -49.34010000     -33.09370000     -74.18830000
H      -48.95870000     -34.83940000     -74.59470000
S      -44.43540000     -30.37580000     -71.54440000
S      -49.12230000     -34.44570000     -72.19850000
C      -45.90870000     -30.77010000     -70.46680000
H      -46.39520000     -29.88040000     -70.27610000
H      -46.59950000     -31.42370000     -70.94400000
C      -47.43280000     -35.10450000     -71.57320000
H      -46.70970000     -35.22500000     -72.31460000
H      -47.71410000     -36.12450000     -71.25690000
C      -46.78670000     -34.29390000     -70.45060000
H      -46.79100000     -33.24810000     -70.77970000
H      -47.49180000     -34.44780000     -69.69130000
C      -45.48770000     -31.45990000     -69.14500000
H      -46.45370000     -31.89940000     -68.62790000
H      -45.20480000     -30.67690000     -68.38070000
C      -44.34940000     -32.47120000     -69.15110000
C      -43.14270000     -32.20400000     -68.53980000
C      -44.41280000     -33.85650000     -69.67110000
H      -42.74120000     -31.33230000     -68.07340000
C      -43.24340000     -34.48990000     -69.47290000
C      -45.40100000     -34.76300000     -70.13940000
C      -44.96520000     -36.09300000     -70.26130000
S      -41.96120000     -33.58500000     -68.54750000
S      -43.30220000     -36.18270000     -69.84420000
H      -45.46140000     -36.88680000     -70.78450000
