40
Properties=species:S:1:pos:R:3 #=T CELL(abcABC):=T 1.889726e+02=T 90.00000=T Traj:=T positionsangstrom=T Step:=T 0=T Bead:=T pbc="F F F"
C      -42.17110000     -31.93550000     -69.85490000
C      -43.10980000     -32.54780000     -69.01950000
C      -43.31840000     -33.94020000     -69.02340000
C      -42.50780000     -34.80200000     -69.81750000
C      -41.63280000     -34.14390000     -70.70560000
C      -41.48830000     -32.71490000     -70.75730000
H      -42.02980000     -30.90490000     -69.93030000
H      -44.03740000     -34.36290000     -68.30610000
H      -41.21390000     -34.82810000     -71.41280000
H      -40.98640000     -32.23730000     -71.56070000
C      -42.64900000     -36.30700000     -69.90910000
H      -42.39390000     -36.78410000     -68.94400000
H      -42.06410000     -36.74470000     -70.69080000
C      -43.73630000     -31.62860000     -67.99190000
H      -43.41250000     -31.88100000     -66.94250000
H      -43.49190000     -30.56490000     -68.26290000
S      -44.49040000     -36.69210000     -70.10340000
S      -45.57930000     -31.61680000     -67.83600000
C      -44.86240000     -35.66590000     -71.59970000
H      -44.31750000     -34.75100000     -71.47710000
H      -44.37770000     -36.27410000     -72.38040000
C      -45.91960000     -31.17360000     -69.63040000
H      -45.02960000     -30.71010000     -69.91270000
H      -46.69860000     -30.42840000     -69.78610000
C      -46.25540000     -32.42880000     -70.48180000
H      -45.39100000     -33.13900000     -70.42480000
H      -47.05270000     -33.01240000     -70.04870000
C      -46.39900000     -35.42130000     -71.60560000
H      -46.67630000     -34.99330000     -70.65480000
H      -46.91780000     -36.38860000     -71.73390000
C      -46.87700000     -34.56310000     -72.87610000
C      -47.45130000     -35.16680000     -73.94110000
C      -46.81660000     -33.12890000     -72.96520000
H      -47.63240000     -36.21800000     -74.14970000
C      -47.36340000     -32.71110000     -74.17510000
C      -46.51420000     -32.09890000     -71.99290000
C      -46.77660000     -30.86810000     -72.55060000
S      -47.93290000     -33.99950000     -75.15810000
S      -47.31910000     -30.97230000     -74.24350000
H      -46.93540000     -29.98430000     -71.94680000
