40
Properties=species:S:1:pos:R:3 #=T CELL(abcABC):=T 1.889726e+02=T 90.00000=T Traj:=T positionsangstrom=T Step:=T 0=T Bead:=T pbc="F F F"
C      -42.24120000     -31.83440000     -69.94770000
C      -42.99300000     -32.35880000     -68.87200000
C      -43.15160000     -33.77550000     -68.71110000
C      -42.64660000     -34.66010000     -69.67040000
C      -41.79480000     -34.08220000     -70.64270000
C      -41.63250000     -32.71190000     -70.85670000
H      -42.06300000     -30.70170000     -70.08320000
H      -43.74100000     -34.23130000     -67.89920000
H      -41.32220000     -34.78420000     -71.35520000
H      -40.90310000     -32.46490000     -71.65390000
C      -42.80690000     -36.15150000     -69.59920000
H      -42.65420000     -36.55600000     -68.62590000
H      -42.28490000     -36.76690000     -70.29420000
C      -43.61370000     -31.36080000     -67.96990000
H      -43.29340000     -31.44290000     -66.93260000
H      -43.54140000     -30.28270000     -68.27310000
S      -44.59990000     -36.60190000     -69.98470000
S      -45.49320000     -31.65920000     -67.84120000
C      -44.98540000     -35.70420000     -71.56650000
H      -44.61020000     -34.66650000     -71.48300000
H      -44.49160000     -36.20840000     -72.37580000
C      -46.18510000     -31.42470000     -69.58830000
H      -45.86430000     -30.39610000     -69.95450000
H      -47.25700000     -31.40100000     -69.35290000
C      -45.80410000     -32.49000000     -70.69110000
H      -44.76640000     -32.28360000     -70.82120000
H      -46.04750000     -33.54000000     -70.36300000
C      -46.55410000     -35.64430000     -71.78040000
H      -47.14000000     -35.32180000     -70.88770000
H      -46.92240000     -36.61410000     -71.98830000
C      -46.93270000     -34.74150000     -72.98490000
C      -47.35900000     -35.27310000     -74.14170000
C      -46.82850000     -33.26360000     -73.00390000
H      -47.48700000     -36.26480000     -74.44880000
C      -47.29400000     -32.74200000     -74.21390000
C      -46.54300000     -32.23000000     -72.01360000
C      -46.76150000     -30.95390000     -72.50060000
S      -47.76050000     -33.97260000     -75.35110000
S      -47.35970000     -30.99750000     -74.20410000
H      -46.39570000     -29.99660000     -72.20300000
