40
Properties=species:S:1:pos:R:3 #=T CELL(abcABC):=T 1.889726e+02=T 90.00000=T Traj:=T positionsangstrom=T Step:=T 0=T Bead:=T pbc="F F F"
C      -42.27690000     -34.47290000     -69.26520000
C      -42.61740000     -33.06030000     -69.19820000
C      -43.83990000     -32.81130000     -68.56730000
C      -44.66050000     -33.77020000     -67.93120000
C      -44.31300000     -35.12710000     -68.04160000
C      -43.10980000     -35.43770000     -68.68190000
H      -41.34360000     -34.77980000     -69.72780000
H      -44.08690000     -31.78230000     -68.58920000
H      -44.99200000     -35.96370000     -67.74360000
H      -42.88980000     -36.53290000     -68.83320000
C      -46.05260000     -33.39180000     -67.40510000
H      -46.21900000     -32.40420000     -67.64590000
H      -46.00760000     -33.57330000     -66.30670000
C      -41.74550000     -32.00200000     -69.77110000
H      -41.13900000     -31.59800000     -68.94970000
H      -41.02640000     -32.39970000     -70.50700000
S      -47.41690000     -34.42330000     -68.09850000
S      -42.68620000     -30.54800000     -70.66340000
C      -47.52430000     -33.89050000     -69.88400000
H      -48.56240000     -34.07930000     -70.13720000
H      -47.44760000     -32.80230000     -69.87060000
C      -43.33570000     -31.63650000     -72.06950000
H      -43.00410000     -32.68990000     -71.85640000
H      -42.85520000     -31.23960000     -72.99730000
C      -44.90730000     -31.62730000     -72.06440000
H      -45.25310000     -32.08150000     -71.08060000
H      -45.18210000     -30.56240000     -72.04340000
C      -46.44610000     -34.52520000     -70.84640000
H      -46.17740000     -35.50810000     -70.39780000
H      -45.57600000     -33.86690000     -70.77380000
C      -46.76720000     -34.53160000     -72.32420000
C      -47.60640000     -35.42800000     -72.93820000
C      -46.20330000     -33.57870000     -73.27560000
H      -48.18150000     -36.25590000     -72.50910000
C      -46.69040000     -33.78690000     -74.53960000
C      -45.40050000     -32.32680000     -73.25280000
C      -45.31120000     -31.76090000     -74.47630000
S      -47.77880000     -35.11910000     -74.65290000
S      -46.19820000     -32.64050000     -75.68580000
H      -44.95660000     -30.71180000     -74.63270000
