40
Properties=species:S:1:pos:R:3 #=T CELL(abcABC):=T 1.889726e+02=T 90.00000=T Traj:=T positionsangstrom=T Step:=T 0=T Bead:=T pbc="F F F"
C      -42.23540000     -34.97000000     -68.83360000
C      -42.77490000     -33.74020000     -69.22770000
C      -44.05210000     -33.43370000     -68.74680000
C      -44.83580000     -34.26660000     -67.87100000
C      -44.27130000     -35.50920000     -67.45730000
C      -43.02570000     -35.83260000     -68.03280000
H      -41.29190000     -35.32660000     -69.27640000
H      -44.59700000     -32.57040000     -69.15200000
H      -44.83400000     -36.23110000     -66.88820000
H      -42.55820000     -36.77210000     -67.72070000
C      -46.21670000     -33.76130000     -67.46610000
H      -46.25750000     -32.71400000     -67.48700000
H      -46.52380000     -33.97720000     -66.40510000
C      -42.07600000     -32.83430000     -70.24500000
H      -40.97220000     -32.71880000     -69.90610000
H      -42.17980000     -33.22420000     -71.25880000
S      -47.64540000     -34.27970000     -68.45460000
S      -42.65370000     -31.10630000     -70.38350000
C      -47.28770000     -33.75990000     -70.23620000
H      -48.24700000     -33.82630000     -70.70740000
H      -46.92680000     -32.70950000     -70.31310000
C      -43.60030000     -31.02630000     -71.97570000
H      -43.09840000     -31.67190000     -72.63180000
H      -43.41290000     -29.97920000     -72.23290000
C      -45.03480000     -31.40740000     -71.71500000
H      -45.02570000     -32.24000000     -71.06510000
H      -45.65440000     -30.61600000     -71.23530000
C      -46.22760000     -34.53130000     -71.01670000
H      -46.22670000     -35.58710000     -70.73380000
H      -45.15770000     -34.16900000     -70.72890000
C      -46.30110000     -34.49250000     -72.55310000
C      -46.86330000     -35.49460000     -73.31370000
C      -46.09080000     -33.21920000     -73.32860000
H      -47.01740000     -36.52860000     -72.98330000
C      -46.69200000     -33.31860000     -74.59700000
C      -45.59040000     -31.86910000     -73.07370000
C      -45.76920000     -31.02750000     -74.15730000
S      -47.23310000     -34.95890000     -74.94580000
S      -46.48110000     -31.82330000     -75.56220000
H      -45.40680000     -30.03390000     -74.23340000
