40
Properties=species:S:1:pos:R:3 #=T CELL(abcABC):=T 1.889726e+02=T 90.00000=T Traj:=T positionsangstrom=T Step:=T 0=T Bead:=T pbc="F F F"
C      -42.43210000     -35.05300000     -68.96750000
C      -42.84190000     -33.77910000     -69.25590000
C      -44.05930000     -33.34050000     -68.67220000
C      -44.82310000     -34.19590000     -67.82890000
C      -44.34640000     -35.49010000     -67.45810000
C      -43.11640000     -35.85810000     -68.00500000
H      -41.51870000     -35.49960000     -69.44580000
H      -44.26730000     -32.30570000     -68.78140000
H      -44.83900000     -36.10780000     -66.69190000
H      -42.74660000     -36.86750000     -67.79290000
C      -46.20780000     -33.73690000     -67.37100000
H      -46.11370000     -32.64990000     -67.31050000
H      -46.51270000     -34.11980000     -66.35370000
C      -42.00120000     -32.95340000     -70.19690000
H      -40.97750000     -33.10370000     -69.97220000
H      -42.07270000     -33.41180000     -71.19080000
S      -47.51880000     -34.41270000     -68.54280000
S      -42.55210000     -31.20340000     -70.24310000
C      -47.31970000     -33.79070000     -70.29270000
H      -48.32730000     -33.87630000     -70.68510000
H      -47.13200000     -32.71720000     -70.14680000
C      -43.51530000     -31.23020000     -71.78460000
H      -43.16750000     -32.00640000     -72.45890000
H      -43.32570000     -30.26430000     -72.27390000
C      -45.06410000     -31.39930000     -71.64390000
H      -45.24120000     -32.21570000     -70.93530000
H      -45.54530000     -30.50270000     -71.24400000
C      -46.36510000     -34.63370000     -71.12280000
H      -46.46540000     -35.71390000     -70.84140000
H      -45.39700000     -34.40660000     -70.81820000
C      -46.56500000     -34.41140000     -72.59090000
C      -46.94030000     -35.42900000     -73.46500000
C      -46.33950000     -33.10070000     -73.25230000
H      -47.04170000     -36.50480000     -73.33460000
C      -46.71630000     -33.21140000     -74.60310000
C      -45.76480000     -31.79740000     -72.97410000
C      -45.77670000     -30.96200000     -74.05750000
S      -47.06790000     -34.80880000     -75.12780000
S      -46.37890000     -31.74890000     -75.56870000
H      -45.57050000     -29.89170000     -73.97850000
