40
Properties=species:S:1:pos:R:3 #=T CELL(abcABC):=T 1.889726e+02=T 90.00000=T Traj:=T positionsangstrom=T Step:=T 0=T Bead:=T pbc="F F F"
C      -42.46500000     -35.21300000     -68.80780000
C      -42.81790000     -33.87270000     -69.16090000
C      -44.06880000     -33.47490000     -68.73860000
C      -44.94560000     -34.27550000     -67.96590000
C      -44.57800000     -35.56630000     -67.58660000
C      -43.26120000     -35.99290000     -67.95240000
H      -41.42700000     -35.53700000     -68.98480000
H      -44.41990000     -32.49890000     -69.08810000
H      -45.22800000     -36.18770000     -67.01020000
H      -42.98600000     -36.96770000     -67.62900000
C      -46.25840000     -33.77750000     -67.47990000
H      -46.26330000     -32.62410000     -67.56930000
H      -46.49020000     -34.17330000     -66.51730000
C      -41.86550000     -32.93270000     -70.00050000
H      -41.00690000     -32.62520000     -69.41410000
H      -41.54530000     -33.44270000     -70.90750000
S      -47.61700000     -34.63990000     -68.49320000
S      -42.51260000     -31.23540000     -70.41650000
C      -47.33100000     -33.88230000     -70.13680000
H      -48.24620000     -33.64810000     -70.77940000
H      -46.87490000     -32.94680000     -69.93660000
C      -43.56110000     -31.36890000     -71.92190000
H      -43.24450000     -32.29160000     -72.53030000
H      -43.38240000     -30.49330000     -72.56970000
C      -45.09030000     -31.45500000     -71.62010000
H      -45.32880000     -32.25560000     -70.91990000
H      -45.38050000     -30.55990000     -71.12060000
C      -46.39410000     -34.66350000     -71.08500000
H      -46.60620000     -35.80100000     -71.00640000
H      -45.32560000     -34.53710000     -70.86930000
C      -46.56290000     -34.29350000     -72.56870000
C      -47.00470000     -35.20040000     -73.49700000
C      -46.20990000     -33.04000000     -73.27930000
H      -47.43540000     -36.21070000     -73.33560000
C      -46.37600000     -33.13090000     -74.67090000
C      -45.69320000     -31.73160000     -72.94780000
C      -45.63260000     -30.88190000     -73.99060000
S      -47.13090000     -34.60630000     -75.12640000
S      -46.27830000     -31.53470000     -75.50120000
H      -45.33860000     -29.84150000     -73.88930000
