40
Properties=species:S:1:pos:R:3 #=T CELL(abcABC):=T 1.889726e+02=T 90.00000=T Traj:=T positionsangstrom=T Step:=T 0=T Bead:=T pbc="F F F"
C      -42.42280000     -35.20930000     -68.73670000
C      -42.78540000     -33.89950000     -69.06480000
C      -44.08490000     -33.52260000     -68.63410000
C      -44.95740000     -34.40790000     -68.02130000
C      -44.57780000     -35.75510000     -67.80340000
C      -43.30400000     -36.17250000     -68.23410000
H      -41.44050000     -35.62200000     -68.88410000
H      -44.43200000     -32.46630000     -68.78590000
H      -45.33690000     -36.44150000     -67.39890000
H      -42.91710000     -37.19230000     -67.97250000
C      -46.32860000     -33.93980000     -67.65240000
H      -46.35060000     -32.83260000     -67.83290000
H      -46.39310000     -34.16790000     -66.50650000
C      -41.79600000     -32.95470000     -69.57430000
H      -41.06990000     -32.79970000     -68.83490000
H      -41.22210000     -33.35330000     -70.40830000
S      -47.68550000     -34.76780000     -68.58210000
S      -42.43990000     -31.33490000     -70.15110000
C      -47.53470000     -34.05460000     -70.37380000
H      -48.43410000     -34.29590000     -70.86710000
H      -47.66600000     -32.97450000     -70.10390000
C      -43.37380000     -31.69180000     -71.75970000
H      -43.40120000     -32.77830000     -71.95340000
H      -42.79530000     -31.32570000     -72.69910000
C      -44.86040000     -31.27960000     -71.76420000
H      -45.34920000     -31.82260000     -70.96810000
H      -44.90690000     -30.18780000     -71.61630000
C      -46.33580000     -34.49310000     -71.13460000
H      -46.31060000     -35.51690000     -71.04750000
H      -45.37260000     -34.20010000     -70.75390000
C      -46.55320000     -34.09210000     -72.58260000
C      -47.20380000     -35.00130000     -73.44910000
C      -46.20960000     -32.89430000     -73.31220000
H      -47.52000000     -35.95710000     -73.11320000
C      -46.54540000     -32.91590000     -74.64690000
C      -45.49360000     -31.66400000     -73.03900000
C      -45.38710000     -30.82830000     -74.13800000
S      -47.41290000     -34.37540000     -75.03520000
S      -46.15580000     -31.49510000     -75.58490000
H      -44.98640000     -29.80710000     -74.10260000
