40
Properties=species:S:1:pos:R:3 #=T CELL(abcABC):=T 1.889726e+02=T 90.00000=T Traj:=T positionsangstrom=T Step:=T 0=T Bead:=T pbc="F F F"
C      -42.47080000     -35.22820000     -68.77510000
C      -42.75360000     -33.86020000     -68.74360000
C      -44.01740000     -33.44060000     -68.30130000
C      -44.93610000     -34.42640000     -67.95040000
C      -44.60490000     -35.78840000     -67.99670000
C      -43.34670000     -36.21680000     -68.38990000
H      -41.45750000     -35.50830000     -69.08920000
H      -44.25740000     -32.42390000     -68.23060000
H      -45.38250000     -36.56940000     -67.78990000
H      -43.02930000     -37.24060000     -68.45390000
C      -46.42340000     -34.04600000     -67.60620000
H      -46.59540000     -33.01730000     -67.65820000
H      -46.64660000     -34.41710000     -66.62050000
C      -41.76260000     -32.79900000     -69.21360000
H      -41.30450000     -32.35030000     -68.28060000
H      -41.01550000     -33.40390000     -69.79240000
S      -47.71640000     -34.86980000     -68.71440000
S      -42.47080000     -31.37350000     -70.16780000
C      -47.64050000     -34.01210000     -70.31990000
H      -48.46050000     -34.31630000     -70.99030000
H      -47.61890000     -32.97020000     -70.15500000
C      -43.29240000     -32.05850000     -71.68000000
H      -43.38600000     -33.10150000     -71.69210000
H      -42.53980000     -31.83610000     -72.44630000
C      -44.57970000     -31.37700000     -71.85330000
H      -45.19960000     -31.50780000     -70.93010000
H      -44.39310000     -30.28870000     -71.97580000
C      -46.33530000     -34.28250000     -71.11770000
H      -45.95890000     -35.31160000     -70.80950000
H      -45.53700000     -33.47960000     -70.88790000
C      -46.52560000     -34.05940000     -72.64570000
C      -47.33740000     -34.92330000     -73.42980000
C      -46.06400000     -32.89700000     -73.43130000
H      -47.84490000     -35.82100000     -73.08760000
C      -46.54640000     -32.92880000     -74.70540000
C      -45.28010000     -31.72650000     -73.14950000
C      -45.30340000     -30.84260000     -74.19630000
S      -47.55330000     -34.30760000     -75.08080000
S      -46.16980000     -31.38040000     -75.56920000
H      -44.76450000     -29.88230000     -74.22140000
