40
Properties=species:S:1:pos:R:3 #=T CELL(abcABC):=T 1.889726e+02=T 90.00000=T Traj:=T positionsangstrom=T Step:=T 0=T Bead:=T pbc="F F F"
C      -42.39890000     -35.04260000     -68.97520000
C      -42.77340000     -33.73430000     -68.67120000
C      -44.10480000     -33.48480000     -68.17560000
C      -44.98360000     -34.55510000     -68.05570000
C      -44.57120000     -35.88290000     -68.31770000
C      -43.29460000     -36.15420000     -68.89460000
H      -41.32250000     -35.16270000     -69.21870000
H      -44.48150000     -32.45050000     -67.91890000
H      -45.40290000     -36.61060000     -68.16220000
H      -42.98950000     -37.17290000     -69.10190000
C      -46.41250000     -34.36260000     -67.51820000
H      -46.65490000     -33.37220000     -67.40470000
H      -46.62860000     -35.07140000     -66.70630000
C      -41.70390000     -32.66380000     -68.95620000
H      -41.57650000     -32.09650000     -67.96600000
H      -40.79210000     -33.09980000     -69.34180000
S      -47.81840000     -34.99910000     -68.73130000
S      -42.21230000     -31.38590000     -70.20450000
C      -47.73030000     -34.02460000     -70.33370000
H      -48.71030000     -34.13220000     -70.82810000
H      -47.50650000     -32.99870000     -70.01830000
C      -43.21690000     -32.32750000     -71.41810000
H      -43.18190000     -33.36520000     -71.16130000
H      -42.68460000     -32.32180000     -72.32990000
C      -44.59140000     -31.76270000     -71.60270000
H      -45.32670000     -32.12400000     -70.85920000
H      -44.38470000     -30.66110000     -71.48830000
C      -46.67100000     -34.58850000     -71.30380000
H      -46.66280000     -35.68650000     -71.40800000
H      -45.70350000     -34.34520000     -71.01220000
C      -46.82630000     -34.01850000     -72.69800000
C      -47.82940000     -34.52230000     -73.53340000
C      -46.06110000     -32.93920000     -73.38200000
H      -48.47050000     -35.31560000     -73.18190000
C      -46.54470000     -32.72250000     -74.66640000
C      -45.10490000     -31.86200000     -73.04880000
C      -44.87430000     -31.03910000     -74.08270000
S      -47.87110000     -33.76790000     -75.05780000
S      -45.78770000     -31.40330000     -75.52310000
H      -44.29410000     -30.17050000     -73.96640000
