40
Properties=species:S:1:pos:R:3 #=T CELL(abcABC):=T 1.889726e+02=T 90.00000=T Traj:=T positionsangstrom=T Step:=T 0=T Bead:=T pbc="F F F"
C      -42.61740000     -33.64930000     -68.31120000
C      -43.95150000     -33.56290000     -67.91600000
C      -44.76630000     -34.64290000     -68.17820000
C      -44.29820000     -35.75310000     -68.90150000
C      -43.02070000     -35.71900000     -69.43260000
C      -42.12940000     -34.67140000     -69.14590000
H      -41.85740000     -32.96850000     -67.92340000
H      -45.79010000     -34.62450000     -67.93810000
H      -42.73760000     -36.41830000     -70.21270000
H      -41.14990000     -34.69280000     -69.58420000
C      -45.15980000     -36.92810000     -69.12920000
H      -45.70160000     -37.16550000     -68.14380000
H      -44.60740000     -37.85220000     -69.47290000
C      -44.42740000     -32.32910000     -67.26700000
H      -44.80560000     -32.60110000     -66.31790000
H      -43.65250000     -31.59200000     -67.06250000
S      -46.61680000     -36.84040000     -70.28240000
S      -45.74230000     -31.52590000     -68.24870000
C      -46.15460000     -36.02990000     -71.83230000
H      -45.20560000     -36.52950000     -72.29040000
H      -46.99860000     -36.29510000     -72.44350000
C      -45.02560000     -31.30360000     -69.99270000
H      -44.26880000     -32.07890000     -70.18040000
H      -44.50750000     -30.40640000     -69.96870000
C      -46.15380000     -31.19250000     -71.03670000
H      -46.80490000     -32.04010000     -70.85590000
H      -46.76440000     -30.29750000     -70.75850000
C      -45.69030000     -34.57650000     -71.82230000
H      -44.58140000     -34.45020000     -71.61720000
H      -46.19750000     -33.90910000     -71.09510000
C      -45.89100000     -33.77710000     -73.20070000
C      -46.06970000     -34.41760000     -74.33850000
C      -45.86210000     -32.32010000     -73.33070000
H      -46.02170000     -35.52000000     -74.36670000
C      -45.77650000     -32.01510000     -74.69100000
C      -45.89630000     -31.16330000     -72.48260000
C      -45.66830000     -30.02440000     -73.23700000
S      -46.22770000     -33.40160000     -75.76380000
S      -45.52130000     -30.31760000     -74.96000000
H      -45.32190000     -29.07370000     -72.87520000
