40
Properties=species:S:1:pos:R:3 #=T CELL(abcABC):=T 1.889726e+02=T 90.00000=T Traj:=T positionsangstrom=T Step:=T 0=T Bead:=T pbc="F F F"
C      -46.94640000     -36.37210000     -70.36550000
C      -45.84230000     -36.76120000     -71.11850000
C      -44.53540000     -36.50390000     -70.61260000
C      -44.35190000     -35.72860000     -69.45000000
C      -45.51630000     -35.25040000     -68.77900000
C      -46.80180000     -35.56900000     -69.18290000
H      -47.90840000     -36.40060000     -70.90460000
H      -43.64970000     -36.83750000     -71.17440000
H      -45.31750000     -34.60230000     -68.01420000
H      -47.71700000     -35.22090000     -68.65420000
C      -43.05310000     -35.44860000     -68.84690000
H      -42.50170000     -36.34870000     -68.67330000
H      -43.18360000     -35.11760000     -67.87570000
C      -45.99610000     -37.10200000     -72.56990000
H      -45.03610000     -37.36100000     -72.96530000
H      -46.55010000     -38.00530000     -72.79010000
S      -41.97650000     -34.17100000     -69.71950000
S      -46.72200000     -35.74490000     -73.62270000
C      -43.04470000     -32.73930000     -69.45270000
H      -44.10010000     -33.11370000     -69.16120000
H      -42.69870000     -32.17940000     -68.60610000
C      -45.26450000     -34.68550000     -74.09130000
H      -45.54090000     -34.14930000     -75.10620000
H      -44.42260000     -35.37440000     -74.28550000
C      -44.85500000     -33.72650000     -72.99110000
H      -44.66840000     -34.34860000     -72.10330000
H      -43.87700000     -33.30030000     -73.24100000
C      -43.09810000     -31.85840000     -70.66060000
H      -42.93470000     -32.56070000     -71.54980000
H      -42.33050000     -31.09220000     -70.52720000
C      -44.39630000     -31.12980000     -70.90920000
C      -44.62580000     -29.91700000     -70.21520000
C      -45.41880000     -31.38530000     -71.87170000
H      -43.97290000     -29.51780000     -69.45580000
C      -46.40030000     -30.36690000     -71.90700000
C      -45.76110000     -32.49110000     -72.76130000
C      -46.98840000     -32.24130000     -73.39250000
S      -46.18700000     -29.14120000     -70.61430000
S      -47.69660000     -30.76710000     -72.94730000
H      -47.43180000     -32.95260000     -74.04960000
