40
Properties=species:S:1:pos:R:3 #=T CELL(abcABC):=T 1.889726e+02=T 90.00000=T Traj:=T positionsangstrom=T Step:=T 0=T Bead:=T pbc="F F F"
C      -41.81910000     -32.12790000     -72.90360000
C      -42.80990000     -32.64220000     -73.77520000
C      -43.28240000     -34.01120000     -73.65050000
C      -42.73130000     -34.78830000     -72.61390000
C      -41.80150000     -34.22880000     -71.69390000
C      -41.38080000     -32.92810000     -71.82420000
H      -41.48370000     -31.08700000     -72.79850000
H      -43.94980000     -34.33640000     -74.45710000
H      -41.40140000     -34.73660000     -70.80020000
H      -40.61370000     -32.52730000     -71.04960000
C      -42.86120000     -36.25740000     -72.61980000
H      -42.25440000     -36.67260000     -71.86450000
H      -42.37000000     -36.74990000     -73.52810000
C      -43.34490000     -31.66740000     -74.72460000
H      -42.56070000     -31.00850000     -75.12230000
H      -43.78320000     -32.25580000     -75.53070000
S      -44.60190000     -37.12220000     -72.40800000
S      -44.85260000     -30.67660000     -74.23060000
C      -45.38950000     -36.13000000     -70.97320000
H      -45.81050000     -36.81880000     -70.26050000
H      -44.61090000     -35.55880000     -70.42580000
C      -45.07960000     -30.73310000     -72.34230000
H      -45.72360000     -29.84320000     -72.17390000
H      -44.19210000     -30.67120000     -71.79670000
C      -45.73630000     -32.02770000     -71.80690000
H      -46.18900000     -32.40690000     -72.64080000
H      -44.86470000     -32.58220000     -71.70150000
C      -46.52130000     -35.27890000     -71.46620000
H      -47.27870000     -36.02610000     -71.93240000
H      -46.34560000     -34.59010000     -72.30850000
C      -47.09540000     -34.56500000     -70.23100000
C      -47.78690000     -35.23640000     -69.30870000
C      -47.06470000     -33.17120000     -69.83410000
H      -47.92980000     -36.29930000     -69.29830000
C      -47.71340000     -32.86570000     -68.65680000
C      -46.53600000     -31.95660000     -70.48590000
C      -46.76990000     -30.80180000     -69.72630000
S      -48.32770000     -34.27850000     -67.90730000
S      -47.67360000     -31.14630000     -68.23360000
H      -46.51830000     -29.81370000     -69.93840000
