40
Properties=species:S:1:pos:R:3 #=T CELL(abcABC):=T 1.889726e+02=T 90.00000=T Traj:=T positionsangstrom=T Step:=T 0=T Bead:=T pbc="F F F"
C      -42.99530000     -35.78730000     -69.58020000
C      -42.96090000     -34.44410000     -69.15630000
C      -44.08840000     -33.91810000     -68.56530000
C      -45.12990000     -34.75340000     -68.31490000
C      -45.20260000     -36.06260000     -68.76090000
C      -44.14810000     -36.53710000     -69.45300000
H      -42.18400000     -36.19200000     -70.09140000
H      -44.04520000     -32.93390000     -68.18090000
H      -46.12630000     -36.60970000     -68.46890000
H      -44.04020000     -37.58870000     -69.76870000
C      -46.37350000     -34.10230000     -67.69730000
H      -46.17140000     -33.15830000     -67.18660000
H      -46.62020000     -34.61920000     -66.75740000
C      -41.68600000     -33.61890000     -69.32880000
H      -41.18040000     -33.52560000     -68.40920000
H      -40.94140000     -34.06470000     -70.06850000
S      -47.98310000     -33.90830000     -68.58530000
S      -41.96020000     -31.85500000     -69.69850000
C      -47.54730000     -33.30060000     -70.25230000
H      -48.51570000     -32.95610000     -70.51860000
H      -46.75310000     -32.54750000     -70.14540000
C      -42.73200000     -31.73940000     -71.39040000
H      -42.10200000     -32.10110000     -72.10990000
H      -42.77750000     -30.69600000     -71.52620000
C      -44.13570000     -32.45930000     -71.51170000
H      -44.00700000     -33.56520000     -71.41190000
H      -44.88850000     -32.05510000     -70.82290000
C      -46.96370000     -34.36340000     -71.20980000
H      -47.40560000     -35.35360000     -71.09250000
H      -45.96320000     -34.47890000     -70.90610000
C      -47.07970000     -33.77230000     -72.62240000
C      -48.17180000     -34.01440000     -73.37620000
C      -46.07360000     -32.95270000     -73.24360000
H      -49.08850000     -34.60170000     -73.07290000
C      -46.42280000     -32.65960000     -74.56650000
C      -44.81050000     -32.26170000     -72.90420000
C      -44.33490000     -31.48270000     -73.91260000
S      -48.02130000     -33.30820000     -74.98090000
S      -45.30760000     -31.47520000     -75.34710000
H      -43.38090000     -30.92300000     -73.95920000
