40
Properties=species:S:1:pos:R:3 #=T CELL(abcABC):=T 1.889726e+02=T 90.00000=T Traj:=T positionsangstrom=T Step:=T 0=T Bead:=T pbc="F F F"
C      -43.16650000     -35.91490000     -69.61260000
C      -43.10120000     -34.47980000     -69.38030000
C      -44.15230000     -33.94080000     -68.59530000
C      -45.23440000     -34.74310000     -68.28500000
C      -45.19750000     -36.17000000     -68.48280000
C      -44.16050000     -36.75550000     -69.18520000
H      -42.34990000     -36.34740000     -70.23970000
H      -44.21320000     -32.83240000     -68.47360000
H      -46.13600000     -36.74390000     -68.15100000
H      -44.15930000     -37.81380000     -69.54100000
C      -46.43320000     -34.23320000     -67.56730000
H      -46.15640000     -33.18770000     -67.26370000
H      -46.58250000     -34.90010000     -66.66910000
C      -41.80040000     -33.78960000     -69.69470000
H      -40.99300000     -34.02960000     -69.08230000
H      -41.48090000     -34.10810000     -70.74580000
S      -48.04640000     -34.15940000     -68.56140000
S      -41.97560000     -31.92790000     -69.81470000
C      -47.52830000     -33.17890000     -70.04190000
H      -48.36770000     -32.60530000     -70.51570000
H      -46.76360000     -32.39600000     -69.90910000
C      -42.70420000     -31.65020000     -71.46470000
H      -42.01480000     -32.12450000     -72.24910000
H      -42.78290000     -30.53810000     -71.61880000
C      -44.17760000     -32.26140000     -71.54670000
H      -44.25240000     -33.23050000     -71.16470000
H      -44.75990000     -31.78060000     -70.72700000
C      -46.98640000     -34.15160000     -71.13240000
H      -47.50650000     -35.12880000     -71.09060000
H      -45.91540000     -34.35760000     -70.90270000
C      -47.05090000     -33.63310000     -72.56900000
C      -48.14910000     -33.90780000     -73.37630000
C      -46.05740000     -32.72840000     -73.21910000
H      -48.94420000     -34.62450000     -73.10000000
C      -46.37690000     -32.53060000     -74.56190000
C      -44.73110000     -32.15770000     -72.89010000
C      -44.14960000     -31.48130000     -73.92500000
S      -47.96120000     -33.09680000     -74.93760000
S      -45.16660000     -31.55950000     -75.38840000
H      -43.11700000     -31.18260000     -73.94690000
