40
Properties=species:S:1:pos:R:3 #=T CELL(abcABC):=T 1.889726e+02=T 90.00000=T Traj:=T positionsangstrom=T Step:=T 0=T Bead:=T pbc="F F F"
C      -41.97020000     -31.86040000     -72.75510000
C      -42.79390000     -32.42950000     -73.73910000
C      -42.99740000     -33.82010000     -73.73900000
C      -42.71890000     -34.65410000     -72.65610000
C      -42.00410000     -34.04700000     -71.61560000
C      -41.55120000     -32.72280000     -71.68580000
H      -41.72010000     -30.82500000     -72.89830000
H      -43.56470000     -34.21640000     -74.55000000
H      -41.65950000     -34.71180000     -70.79020000
H      -41.02530000     -32.18880000     -70.89680000
C      -43.06970000     -36.14810000     -72.49010000
H      -42.71240000     -36.35050000     -71.35650000
H      -42.53730000     -36.75350000     -73.19720000
C      -43.35650000     -31.48590000     -74.72570000
H      -42.79050000     -30.52000000     -74.75910000
H      -43.16360000     -31.82280000     -75.80580000
S      -44.86900000     -36.41010000     -72.82570000
S      -45.19130000     -31.28310000     -74.47690000
C      -45.69810000     -36.09580000     -71.11670000
H      -45.82930000     -37.09640000     -70.77160000
H      -45.06660000     -35.53710000     -70.36600000
C      -45.36430000     -30.94870000     -72.67030000
H      -45.96140000     -30.05530000     -72.56840000
H      -44.41620000     -30.70610000     -72.13700000
C      -46.05330000     -32.16730000     -72.05720000
H      -46.91820000     -32.29050000     -72.53850000
H      -45.33550000     -32.97360000     -72.25030000
C      -47.06140000     -35.46120000     -71.28580000
H      -47.86130000     -36.21910000     -71.53360000
H      -47.01770000     -34.78240000     -72.11980000
C      -47.50050000     -34.67120000     -70.10380000
C      -48.18140000     -35.16600000     -69.00670000
C      -46.96380000     -33.31390000     -69.87040000
H      -48.69270000     -36.12990000     -69.13540000
C      -47.19530000     -33.04030000     -68.50220000
C      -46.34780000     -32.14130000     -70.55150000
C      -46.26700000     -31.05760000     -69.73440000
S      -48.17650000     -34.18120000     -67.58440000
S      -46.57630000     -31.43750000     -68.01380000
H      -45.71600000     -30.21670000     -70.04470000
