40
Properties=species:S:1:pos:R:3 #=T CELL(abcABC):=T 1.889726e+02=T 90.00000=T Traj:=T positionsangstrom=T Step:=T 0=T Bead:=T pbc="F F F"
C      -43.27800000     -36.16270000     -69.65370000
C      -43.09390000     -34.94690000     -69.03050000
C      -44.10780000     -34.34610000     -68.32540000
C      -45.39620000     -34.96730000     -68.22990000
C      -45.55910000     -36.22690000     -68.71380000
C      -44.54550000     -36.81090000     -69.49300000
H      -42.40710000     -36.55030000     -70.21230000
H      -43.98950000     -33.35530000     -67.95060000
H      -46.47390000     -36.76090000     -68.62700000
H      -44.93840000     -37.65210000     -70.00950000
C      -46.51780000     -34.05800000     -67.69360000
H      -46.21740000     -33.01570000     -67.63000000
H      -46.78810000     -34.35560000     -66.66460000
C      -41.70270000     -34.18400000     -69.05900000
H      -41.28830000     -34.15430000     -68.06190000
H      -41.04300000     -34.83700000     -69.68510000
S      -48.03730000     -34.07560000     -68.74960000
S      -41.84910000     -32.46960000     -69.77450000
C      -47.62060000     -33.14430000     -70.28930000
H      -48.48810000     -32.59900000     -70.62090000
H      -46.84320000     -32.38950000     -70.09940000
C      -42.49590000     -32.68140000     -71.43570000
H      -42.11820000     -33.52980000     -72.00230000
H      -42.11190000     -31.80490000     -71.85150000
C      -44.05750000     -32.65390000     -71.43160000
H      -44.28270000     -33.68340000     -71.17220000
H      -44.28040000     -32.11310000     -70.52110000
C      -47.12470000     -34.07040000     -71.41140000
H      -47.72330000     -34.94720000     -71.41770000
H      -46.05480000     -34.27290000     -71.27980000
C      -47.13680000     -33.39480000     -72.78220000
C      -48.25380000     -33.25290000     -73.57590000
C      -46.03190000     -32.59020000     -73.27230000
H      -49.19750000     -33.72270000     -73.27850000
C      -46.35190000     -32.07060000     -74.53200000
C      -44.71470000     -32.18690000     -72.75850000
C      -43.98400000     -31.58650000     -73.76090000
S      -48.00140000     -32.34000000     -75.02310000
S      -44.93270000     -31.15320000     -75.20220000
H      -43.01170000     -31.23480000     -73.77660000
