40
Properties=species:S:1:pos:R:3 #=T CELL(abcABC):=T 1.889726e+02=T 90.00000=T Traj:=T positionsangstrom=T Step:=T 0=T Bead:=T pbc="F F F"
C      -42.84930000     -33.78440000     -69.80410000
C      -44.00270000     -33.51750000     -68.95690000
C      -44.88660000     -34.59280000     -68.67610000
C      -44.74770000     -35.85050000     -69.32360000
C      -43.65100000     -36.04010000     -70.18700000
C      -42.69790000     -35.04460000     -70.33740000
H      -42.03400000     -33.08480000     -70.00100000
H      -45.73460000     -34.40440000     -67.98530000
H      -43.44150000     -36.97980000     -70.73090000
H      -41.80290000     -35.18770000     -71.03770000
C      -45.76370000     -36.94160000     -69.13230000
H      -46.07220000     -37.08850000     -68.12220000
H      -45.45000000     -37.88230000     -69.47380000
C      -44.27450000     -32.15440000     -68.48850000
H      -44.89250000     -32.06800000     -67.59550000
H      -43.30440000     -31.54460000     -68.33370000
S      -47.37980000     -36.59380000     -70.00650000
S      -45.07180000     -31.00960000     -69.78070000
C      -46.84750000     -36.09640000     -71.71610000
H      -45.78270000     -36.17640000     -71.77850000
H      -47.15400000     -36.89920000     -72.48840000
C      -46.63320000     -31.87380000     -69.96630000
H      -47.19170000     -32.04690000     -69.00550000
H      -46.40130000     -32.93820000     -70.21920000
C      -47.47570000     -31.17910000     -71.07330000
H      -48.39100000     -31.77080000     -71.19310000
H      -47.78490000     -30.14500000     -70.90640000
C      -47.20560000     -34.62960000     -72.08830000
H      -47.34760000     -34.09200000     -71.15110000
H      -48.14930000     -34.42970000     -72.63480000
C      -46.12570000     -33.86000000     -72.83080000
C      -45.12730000     -34.51640000     -73.51210000
C      -45.94420000     -32.41010000     -72.91450000
H      -44.95100000     -35.60220000     -73.60640000
C      -44.76040000     -32.07010000     -73.52850000
C      -46.60190000     -31.20250000     -72.34280000
C      -45.99670000     -30.04340000     -72.76550000
S      -43.92830000     -33.41280000     -74.17980000
S      -44.61630000     -30.33220000     -73.83280000
H      -46.28560000     -28.99250000     -72.64840000
