40
Properties=species:S:1:pos:R:3 #=T CELL(abcABC):=T 1.889726e+02=T 90.00000=T Traj:=T positionsangstrom=T Step:=T 0=T Bead:=T pbc="F F F"
C      -43.55250000     -36.43340000     -69.92790000
C      -43.14880000     -35.18410000     -69.36360000
C      -44.13520000     -34.51890000     -68.59730000
C      -45.47920000     -35.06010000     -68.46660000
C      -45.79610000     -36.27660000     -69.13590000
C      -44.86260000     -36.91170000     -69.91950000
H      -42.80450000     -36.87020000     -70.53100000
H      -43.87450000     -33.64150000     -68.02470000
H      -46.77100000     -36.72700000     -69.01060000
H      -45.20080000     -37.62910000     -70.62320000
C      -46.47700000     -34.25030000     -67.73740000
H      -45.99080000     -33.25420000     -67.54800000
H      -46.68900000     -34.74760000     -66.82910000
C      -41.77930000     -34.65490000     -69.41220000
H      -41.41450000     -34.73410000     -68.37040000
H      -41.12760000     -35.26500000     -70.00150000
S      -48.13020000     -33.85820000     -68.50740000
S      -41.57090000     -32.87210000     -69.81980000
C      -47.56600000     -33.03910000     -70.00990000
H      -48.15140000     -32.15440000     -70.18170000
H      -46.63560000     -32.58580000     -69.79120000
C      -42.44660000     -32.89850000     -71.45930000
H      -42.20430000     -33.80350000     -71.97610000
H      -42.14500000     -32.08200000     -72.12450000
C      -43.99120000     -32.81490000     -71.44640000
H      -44.41570000     -33.81690000     -71.14700000
H      -44.45760000     -32.13550000     -70.67560000
C      -47.46620000     -33.93120000     -71.33900000
H      -48.23430000     -34.69690000     -71.48750000
H      -46.60200000     -34.55930000     -71.09230000
C      -47.20980000     -33.13410000     -72.57910000
C      -48.24280000     -32.93800000     -73.46720000
C      -46.03200000     -32.31380000     -73.08220000
H      -49.27650000     -33.30090000     -73.50820000
C      -46.26280000     -31.69080000     -74.28770000
C      -44.59470000     -32.27380000     -72.75040000
C      -43.87570000     -31.52660000     -73.67080000
S      -47.82020000     -32.08400000     -74.91830000
S      -44.89470000     -30.95310000     -74.99310000
H      -42.86020000     -31.44910000     -73.84420000
