40
Properties=species:S:1:pos:R:3 #=T CELL(abcABC):=T 1.889726e+02=T 90.00000=T Traj:=T positionsangstrom=T Step:=T 0=T Bead:=T pbc="F F F"
C      -42.48830000     -31.90320000     -72.39740000
C      -43.34970000     -32.08720000     -73.45330000
C      -43.61270000     -33.41480000     -73.90520000
C      -42.96400000     -34.51560000     -73.32540000
C      -42.12300000     -34.29900000     -72.22910000
C      -41.79870000     -32.99070000     -71.75610000
H      -42.11280000     -30.89550000     -72.16280000
H      -44.20070000     -33.59780000     -74.81780000
H      -41.67210000     -35.25530000     -71.92780000
H      -41.10940000     -32.85640000     -71.02150000
C      -43.25980000     -35.93240000     -73.88970000
H      -42.45750000     -36.47050000     -73.52120000
H      -43.35730000     -35.92460000     -74.95340000
C      -43.94380000     -30.88370000     -74.14190000
H      -43.69020000     -29.96910000     -73.49530000
H      -43.56500000     -30.77680000     -75.15860000
S      -44.74020000     -36.53450000     -73.09880000
S      -45.85310000     -31.07060000     -74.40190000
C      -44.90410000     -35.83360000     -71.45720000
H      -44.34680000     -36.38190000     -70.71300000
H      -44.43490000     -34.87980000     -71.47350000
C      -46.54590000     -31.07510000     -72.71090000
H      -47.61850000     -31.00980000     -72.96970000
H      -46.28110000     -30.03690000     -72.18100000
C      -46.17770000     -32.28650000     -71.89190000
H      -46.51410000     -33.20310000     -72.30960000
H      -45.09980000     -32.39690000     -71.89590000
C      -46.44980000     -35.69710000     -71.14150000
H      -46.91790000     -36.63610000     -71.00530000
H      -47.05490000     -35.26590000     -71.92270000
C      -46.73760000     -34.89150000     -69.81420000
C      -46.98670000     -35.54890000     -68.60550000
C      -46.66780000     -33.41160000     -69.65140000
H      -47.08770000     -36.56920000     -68.48190000
C      -46.75030000     -33.04580000     -68.27570000
C      -46.50720000     -32.24000000     -70.43860000
C      -46.52960000     -31.13780000     -69.63960000
S      -47.10590000     -34.39550000     -67.23870000
S      -46.79270000     -31.35900000     -67.93270000
H      -46.32880000     -30.18890000     -69.99470000
