40
Properties=species:S:1:pos:R:3 #=T CELL(abcABC):=T 1.889726e+02=T 90.00000=T Traj:=T positionsangstrom=T Step:=T 0=T Bead:=T pbc="F F F"
C      -43.63780000     -36.41630000     -70.31890000
C      -43.20010000     -35.41690000     -69.46200000
C      -44.03660000     -34.91420000     -68.48120000
C      -45.39090000     -35.24570000     -68.51950000
C      -45.87800000     -36.30370000     -69.34410000
C      -44.96040000     -36.93040000     -70.14970000
H      -42.99850000     -36.81820000     -71.05120000
H      -43.64950000     -34.35320000     -67.68320000
H      -46.90360000     -36.60710000     -69.48490000
H      -45.43290000     -37.76530000     -70.67210000
C      -46.35240000     -34.41460000     -67.72530000
H      -45.90940000     -33.42440000     -67.34200000
H      -46.87430000     -34.92950000     -66.87870000
C      -41.78150000     -35.00240000     -69.58780000
H      -41.21800000     -35.25920000     -68.63010000
H      -41.14300000     -35.44470000     -70.38740000
S      -47.98760000     -33.71840000     -68.53830000
S      -41.62340000     -33.11570000     -69.77630000
C      -47.35410000     -32.91160000     -70.07590000
H      -47.89620000     -31.98530000     -70.29810000
H      -46.33170000     -32.47520000     -69.91950000
C      -42.53050000     -32.71770000     -71.37440000
H      -42.13780000     -33.28580000     -72.18190000
H      -42.18820000     -31.69400000     -71.53070000
C      -44.06210000     -32.88580000     -71.47100000
H      -44.24170000     -33.98030000     -71.47410000
H      -44.58160000     -32.53500000     -70.56720000
C      -47.23360000     -33.81410000     -71.30020000
H      -48.12300000     -34.43850000     -71.26970000
H      -46.39090000     -34.48510000     -71.24690000
C      -47.18040000     -32.92270000     -72.50580000
C      -48.34150000     -32.72340000     -73.26220000
C      -46.05260000     -32.35360000     -73.13470000
H      -49.40890000     -33.07600000     -73.16550000
C      -46.29370000     -31.61790000     -74.28900000
C      -44.59010000     -32.27380000     -72.73090000
C      -43.89130000     -31.60420000     -73.62380000
S      -48.02290000     -31.80910000     -74.70220000
S      -44.85570000     -30.88270000     -74.93760000
H      -42.88560000     -31.20700000     -73.63370000
