40
Properties=species:S:1:pos:R:3 #=T CELL(abcABC):=T 1.889726e+02=T 90.00000=T Traj:=T positionsangstrom=T Step:=T 0=T Bead:=T pbc="F F F"
C      -43.28070000     -32.77410000     -69.77380000
C      -44.35570000     -32.81790000     -68.89500000
C      -44.95970000     -34.03520000     -68.64920000
C      -44.64230000     -35.24040000     -69.37930000
C      -43.63090000     -35.10760000     -70.36410000
C      -42.89690000     -33.91910000     -70.45200000
H      -42.71580000     -31.84570000     -69.89830000
H      -45.59320000     -34.09210000     -67.77190000
H      -43.30680000     -35.95000000     -70.99600000
H      -42.04370000     -33.89760000     -71.12960000
C      -45.26350000     -36.58530000     -69.17700000
H      -45.49580000     -36.89580000     -68.12760000
H      -44.64990000     -37.39510000     -69.51870000
C      -44.86260000     -31.59670000     -68.15690000
H      -45.59340000     -31.99000000     -67.49220000
H      -44.11710000     -31.00700000     -67.53980000
S      -47.04700000     -36.83190000     -69.88240000
S      -45.59880000     -30.40240000     -69.39330000
C      -46.67860000     -36.46470000     -71.62320000
H      -45.61860000     -36.70880000     -71.85910000
H      -47.28990000     -37.16930000     -72.24910000
C      -47.10680000     -31.30920000     -69.82280000
H      -47.95990000     -30.77710000     -69.47220000
H      -47.02750000     -32.27370000     -69.31330000
C      -47.35760000     -31.45870000     -71.39530000
H      -48.14670000     -32.25220000     -71.40040000
H      -47.90680000     -30.54490000     -71.59660000
C      -46.93810000     -34.94260000     -71.78160000
H      -46.81910000     -34.39940000     -70.82530000
H      -47.99880000     -34.87480000     -72.13820000
C      -46.02460000     -34.33700000     -72.79420000
C      -45.39300000     -35.04820000     -73.77520000
C      -45.65890000     -32.89990000     -72.86770000
H      -45.65240000     -36.10050000     -74.02250000
C      -44.69140000     -32.67680000     -73.81320000
C      -46.18700000     -31.64190000     -72.28140000
C      -45.31650000     -30.60150000     -72.56140000
S      -44.23010000     -34.11650000     -74.76080000
S      -44.21360000     -30.98990000     -73.83040000
H      -45.40350000     -29.60040000     -72.38310000
