40
Properties=species:S:1:pos:R:3 #=T CELL(abcABC):=T 1.889726e+02=T 90.00000=T Traj:=T positionsangstrom=T Step:=T 0=T Bead:=T pbc="F F F"
C      -46.96150000     -36.24720000     -70.07700000
C      -45.94900000     -36.43400000     -71.04720000
C      -44.65330000     -36.32270000     -70.58580000
C      -44.33650000     -35.92530000     -69.26850000
C      -45.37950000     -35.75320000     -68.31480000
C      -46.75920000     -35.94840000     -68.72520000
H      -48.03390000     -36.32040000     -70.34080000
H      -43.88900000     -36.31870000     -71.32130000
H      -45.21080000     -35.47540000     -67.31380000
H      -47.63160000     -35.83030000     -68.09360000
C      -42.88780000     -35.71350000     -68.89020000
H      -42.31350000     -36.60310000     -69.06520000
H      -42.90960000     -35.47580000     -67.82890000
C      -46.32440000     -36.85030000     -72.46270000
H      -45.45350000     -37.11620000     -72.98300000
H      -47.13850000     -37.56300000     -72.45000000
S      -42.04650000     -34.33250000     -69.83960000
S      -47.05830000     -35.58810000     -73.60550000
C      -43.33960000     -32.99050000     -69.79020000
H      -44.30440000     -33.49460000     -70.00770000
H      -43.61990000     -32.56640000     -68.74410000
C      -45.52470000     -34.67300000     -74.04250000
H      -45.77380000     -34.05890000     -74.88860000
H      -44.70710000     -35.43100000     -74.36290000
C      -44.88740000     -33.67710000     -73.02020000
H      -44.58580000     -34.11950000     -72.08110000
H      -43.95990000     -33.31150000     -73.52770000
C      -43.00200000     -31.90230000     -70.83630000
H      -42.56810000     -32.39230000     -71.70840000
H      -42.16370000     -31.28170000     -70.43210000
C      -44.14930000     -30.98480000     -71.09070000
C      -44.32790000     -29.77380000     -70.50920000
C      -45.33710000     -31.39210000     -71.85880000
H      -43.62390000     -29.27150000     -69.84840000
C      -46.26420000     -30.41470000     -71.82940000
C      -45.74990000     -32.46330000     -72.74480000
C      -46.92280000     -32.24060000     -73.30530000
S      -45.86470000     -28.99670000     -70.93560000
S      -47.61760000     -30.71490000     -72.81920000
H      -47.46360000     -32.83710000     -73.99920000
