40
Properties=species:S:1:pos:R:3 #=T CELL(abcABC):=T 1.889726e+02=T 90.00000=T Traj:=T positionsangstrom=T Step:=T 0=T Bead:=T pbc="F F F"
C      -43.26240000     -32.34990000     -69.53620000
C      -44.40840000     -32.67450000     -68.70780000
C      -44.84960000     -33.98980000     -68.66780000
C      -44.25710000     -35.01290000     -69.35500000
C      -43.16720000     -34.71300000     -70.13940000
C      -42.67480000     -33.36260000     -70.27150000
H      -42.72680000     -31.37380000     -69.44510000
H      -45.72840000     -34.37050000     -68.18820000
H      -42.84060000     -35.50220000     -70.84470000
H      -41.77210000     -33.31040000     -70.88350000
C      -44.89130000     -36.36950000     -69.33460000
H      -44.82250000     -36.80800000     -68.33520000
H      -44.51430000     -37.12320000     -69.95740000
C      -45.12140000     -31.54070000     -67.96520000
H      -45.52450000     -31.91650000     -67.01970000
H      -44.45480000     -30.76090000     -67.66880000
S      -46.73730000     -36.39160000     -69.71550000
S      -46.50560000     -30.75480000     -68.92360000
C      -46.88560000     -36.28410000     -71.57160000
H      -45.91750000     -36.56120000     -71.97400000
H      -47.62110000     -37.12220000     -71.73970000
C      -47.18990000     -31.96170000     -70.12380000
H      -48.22490000     -32.21300000     -69.92660000
H      -46.53300000     -32.88470000     -70.13830000
C      -47.22000000     -31.45350000     -71.56160000
H      -48.09840000     -31.88760000     -72.11150000
H      -47.33640000     -30.39740000     -71.58190000
C      -47.26820000     -34.92680000     -72.23110000
H      -47.43700000     -34.16120000     -71.41200000
H      -48.20120000     -35.05410000     -72.75600000
C      -46.22730000     -34.31740000     -73.14730000
C      -45.56080000     -35.12470000     -74.04580000
C      -45.67500000     -33.01300000     -73.09860000
H      -45.77150000     -36.13330000     -74.19250000
C      -44.50000000     -32.86210000     -73.90070000
C      -46.05290000     -31.82240000     -72.40400000
C      -45.25520000     -30.80760000     -72.83570000
S      -44.20200000     -34.30830000     -74.77150000
S      -43.95010000     -31.22480000     -73.86970000
H      -45.35900000     -29.79070000     -72.32290000
