40
Properties=species:S:1:pos:R:3 #=T CELL(abcABC):=T 1.889726e+02=T 90.00000=T Traj:=T positionsangstrom=T Step:=T 0=T Bead:=T pbc="F F F"
C      -44.84520000     -37.21550000     -71.04150000
C      -43.99270000     -36.49420000     -70.14100000
C      -44.70840000     -35.69830000     -69.21100000
C      -46.06610000     -35.66580000     -69.08900000
C      -46.84530000     -36.41120000     -69.95830000
C      -46.23780000     -37.19140000     -70.94890000
H      -44.45350000     -37.84910000     -71.88180000
H      -44.05730000     -35.23220000     -68.41150000
H      -47.90710000     -36.24760000     -70.00550000
H      -46.94350000     -37.71210000     -71.51930000
C      -46.58780000     -34.78320000     -67.94910000
H      -45.83910000     -34.01090000     -67.66390000
H      -46.84050000     -35.35560000     -67.00010000
C      -42.51160000     -36.52160000     -70.27250000
H      -41.98000000     -36.59580000     -69.31800000
H      -42.14330000     -37.42540000     -70.81180000
S      -48.03440000     -33.85910000     -68.52770000
S      -41.74470000     -34.90670000     -70.78520000
C      -47.15070000     -32.70240000     -69.63990000
H      -47.69630000     -31.73740000     -69.78670000
H      -46.20410000     -32.51400000     -69.25140000
C      -42.95160000     -33.96670000     -71.81160000
H      -43.76640000     -34.64430000     -72.19200000
H      -42.33450000     -33.76700000     -72.68870000
C      -43.59940000     -32.70050000     -71.12260000
H      -44.39590000     -32.99730000     -70.44440000
H      -42.90270000     -32.12360000     -70.48660000
C      -47.14690000     -33.22350000     -71.14120000
H      -48.07690000     -33.76080000     -71.41980000
H      -46.41580000     -34.01980000     -71.18790000
C      -46.83510000     -32.15200000     -72.14680000
C      -47.81250000     -31.56180000     -72.87030000
C      -45.57320000     -31.56910000     -72.48810000
H      -48.85820000     -31.85100000     -72.89820000
C      -45.67440000     -30.56940000     -73.48290000
C      -44.14330000     -31.75980000     -72.15550000
C      -43.31380000     -30.98430000     -72.88290000
S      -47.21340000     -30.36080000     -74.09760000
S      -44.14150000     -29.97360000     -74.09250000
H      -42.15790000     -31.10330000     -72.93210000
