40
Properties=species:S:1:pos:R:3 #=T CELL(abcABC):=T 1.889726e+02=T 90.00000=T Traj:=T positionsangstrom=T Step:=T 0=T Bead:=T pbc="F F F"
C      -48.53620000     -33.23870000     -69.12790000
C      -47.30470000     -32.70740000     -68.68440000
C      -46.25060000     -33.62590000     -68.50160000
C      -46.45760000     -34.96090000     -68.67710000
C      -47.69790000     -35.48130000     -69.04460000
C      -48.69720000     -34.56690000     -69.27810000
H      -49.31960000     -32.47940000     -69.17550000
H      -45.30350000     -33.24770000     -68.18680000
H      -47.89050000     -36.57460000     -69.19570000
H      -49.67600000     -34.94660000     -69.58320000
C      -45.42840000     -36.01080000     -68.29810000
H      -45.74960000     -36.67090000     -67.49070000
H      -44.45920000     -35.48370000     -67.98870000
C      -47.08740000     -31.22290000     -68.63840000
H      -47.77100000     -30.79220000     -67.89100000
H      -46.09560000     -31.06240000     -68.31810000
S      -45.03800000     -37.22030000     -69.66270000
S      -47.55140000     -30.40700000     -70.23980000
C      -45.08110000     -36.13780000     -71.15970000
H      -44.90230000     -36.75570000     -72.00820000
H      -46.11890000     -35.89610000     -71.33210000
C      -46.35390000     -31.19870000     -71.36080000
H      -46.44350000     -30.47840000     -72.20940000
H      -46.75490000     -32.15200000     -71.63630000
C      -44.84860000     -31.33610000     -70.95150000
H      -44.59100000     -30.42060000     -70.46470000
H      -44.64650000     -32.14120000     -70.25610000
C      -44.25230000     -34.86260000     -71.22270000
H      -43.29790000     -35.14880000     -70.77120000
H      -44.66470000     -34.08770000     -70.51400000
C      -43.97750000     -34.31920000     -72.60400000
C      -43.56370000     -35.15160000     -73.56740000
C      -43.90520000     -32.90420000     -72.91250000
H      -43.58220000     -36.22340000     -73.56160000
C      -43.41200000     -32.69720000     -74.25440000
C      -44.07290000     -31.63700000     -72.20130000
C      -43.76690000     -30.55000000     -73.00070000
S      -43.25620000     -34.25280000     -75.04830000
S      -43.14430000     -30.89390000     -74.58440000
H      -43.93450000     -29.52760000     -72.67440000
