40
Properties=species:S:1:pos:R:3 #=T CELL(abcABC):=T 1.889726e+02=T 90.00000=T Traj:=T positionsangstrom=T Step:=T 0=T Bead:=T pbc="F F F"
C      -48.74810000     -33.43410000     -69.23750000
C      -47.57320000     -32.95080000     -68.70910000
C      -46.51990000     -33.83010000     -68.45960000
C      -46.64010000     -35.18650000     -68.75670000
C      -47.81940000     -35.66630000     -69.33290000
C      -48.89210000     -34.80390000     -69.52840000
H      -49.58460000     -32.85480000     -69.48430000
H      -45.55120000     -33.51860000     -67.98250000
H      -47.95450000     -36.71020000     -69.36910000
H      -49.90110000     -35.11410000     -69.69570000
C      -45.50040000     -36.03740000     -68.39560000
H      -45.70290000     -36.69470000     -67.45810000
H      -44.62300000     -35.39730000     -68.10040000
C      -47.46620000     -31.51380000     -68.39420000
H      -48.36840000     -31.27030000     -67.86270000
H      -46.53440000     -31.22880000     -67.87710000
S      -44.88330000     -37.16900000     -69.72580000
S      -47.45220000     -30.36050000     -69.98980000
C      -45.07490000     -36.09280000     -71.22880000
H      -44.81180000     -36.75310000     -72.03840000
H      -46.04760000     -35.65490000     -71.14470000
C      -46.48140000     -31.13280000     -71.31770000
H      -46.51340000     -30.40570000     -72.11380000
H      -46.92970000     -32.06790000     -71.70320000
C      -45.04390000     -31.48300000     -70.95180000
H      -44.61380000     -30.62920000     -70.33400000
H      -45.06650000     -32.36500000     -70.30230000
C      -44.19880000     -34.81750000     -71.25880000
H      -43.20470000     -34.99460000     -70.76860000
H      -44.72510000     -34.13030000     -70.66960000
C      -43.88400000     -34.27450000     -72.71330000
C      -43.43310000     -34.99750000     -73.78840000
C      -43.76500000     -32.84920000     -72.88850000
H      -43.37950000     -36.10480000     -73.88800000
C      -43.25700000     -32.55500000     -74.13800000
C      -44.15050000     -31.64510000     -72.17270000
C      -43.87180000     -30.51990000     -72.93190000
S      -42.87480000     -33.94600000     -75.06360000
S      -43.09210000     -30.81430000     -74.48060000
H      -44.18540000     -29.52450000     -72.66260000
