40
Properties=species:S:1:pos:R:3 #=T CELL(abcABC):=T 1.889726e+02=T 90.00000=T Traj:=T positionsangstrom=T Step:=T 0=T Bead:=T pbc="F F F"
C      -45.81610000     -34.13370000     -75.38060000
C      -45.13220000     -33.00800000     -74.92180000
C      -43.83330000     -33.11990000     -74.47120000
C      -43.25130000     -34.35790000     -74.25480000
C      -43.95710000     -35.52480000     -74.69190000
C      -45.21970000     -35.39400000     -75.24670000
H      -46.76150000     -34.01210000     -75.86220000
H      -43.15550000     -32.25050000     -74.24780000
H      -43.51810000     -36.52440000     -74.62120000
H      -45.78230000     -36.28150000     -75.65160000
C      -41.94910000     -34.55270000     -73.58010000
H      -41.16520000     -33.96230000     -73.99080000
H      -41.70460000     -35.59100000     -73.77790000
C      -45.77150000     -31.69180000     -74.91970000
H      -45.30330000     -31.13380000     -75.77950000
H      -46.87130000     -31.83010000     -75.21810000
S      -41.89440000     -34.02580000     -71.78650000
S      -45.54990000     -30.81020000     -73.35420000
C      -43.52370000     -34.37750000     -71.07470000
H      -44.22040000     -34.30830000     -71.91820000
H      -43.63490000     -35.41020000     -70.69160000
C      -46.43220000     -31.89230000     -72.24840000
H      -46.08160000     -32.91610000     -72.28600000
H      -47.44930000     -32.03140000     -72.58220000
C      -46.45470000     -31.22040000     -70.83860000
H      -45.44190000     -30.91480000     -70.57500000
H      -47.23100000     -30.30740000     -70.83270000
C      -43.76640000     -33.45950000     -69.86930000
H      -43.82510000     -32.43070000     -70.33910000
H      -42.73540000     -33.47290000     -69.32160000
C      -44.92560000     -33.70850000     -68.99850000
C      -44.74340000     -34.66380000     -67.98330000
C      -46.24010000     -33.21760000     -69.03360000
H      -43.78630000     -35.02390000     -67.66490000
C      -47.06560000     -33.89330000     -68.14810000
C      -46.95770000     -32.21580000     -69.79890000
C      -48.23690000     -32.04030000     -69.35380000
S      -46.21220000     -35.04170000     -67.07460000
S      -48.66690000     -33.08560000     -68.01510000
H      -48.87010000     -31.30070000     -69.75980000
