40
Properties=species:S:1:pos:R:3 #=T CELL(abcABC):=T 1.889726e+02=T 90.00000=T Traj:=T positionsangstrom=T Step:=T 0=T Bead:=T pbc="F F F"
C      -42.67920000     -31.92650000     -74.58780000
C      -44.07130000     -32.09930000     -74.63750000
C      -44.66290000     -33.35940000     -74.63600000
C      -43.86130000     -34.47440000     -74.38330000
C      -42.54060000     -34.29040000     -74.05110000
C      -41.93600000     -33.04150000     -74.26110000
H      -42.27060000     -30.90080000     -74.53930000
H      -45.73510000     -33.37150000     -74.79540000
H      -41.86390000     -35.16550000     -73.72800000
H      -40.91790000     -32.97700000     -74.01690000
C      -44.50010000     -35.82760000     -74.34710000
H      -43.85400000     -36.55180000     -73.93640000
H      -44.73830000     -36.12550000     -75.39840000
C      -44.91940000     -30.83700000     -74.51400000
H      -44.27100000     -30.09260000     -73.99320000
H      -45.14600000     -30.33510000     -75.48570000
S      -46.05080000     -35.90230000     -73.38720000
S      -46.45530000     -30.92820000     -73.56410000
C      -45.45160000     -35.67770000     -71.66650000
H      -45.22480000     -36.65930000     -71.19000000
H      -44.55170000     -35.03490000     -71.52410000
C      -45.81410000     -31.72160000     -72.00840000
H      -44.86570000     -31.21540000     -71.72030000
H      -45.53860000     -32.77730000     -72.26290000
C      -46.81270000     -31.78590000     -70.85850000
H      -47.30540000     -30.84360000     -70.85470000
H      -47.61580000     -32.36900000     -71.24280000
C      -46.66640000     -35.18000000     -70.78170000
H      -47.46730000     -35.92680000     -70.76770000
H      -47.20340000     -34.32780000     -71.17300000
C      -46.35690000     -34.75260000     -69.38060000
C      -46.31890000     -35.64350000     -68.30460000
C      -46.07930000     -33.42070000     -68.91160000
H      -46.42920000     -36.75290000     -68.33210000
C      -45.57720000     -33.39890000     -67.63610000
C      -46.27300000     -32.07690000     -69.49450000
C      -45.88660000     -31.12810000     -68.57810000
S      -45.52250000     -34.93280000     -66.89540000
S      -45.26170000     -31.82710000     -67.09220000
H      -45.96550000     -30.13570000     -68.77610000
