40
Properties=species:S:1:pos:R:3 #=T CELL(abcABC):=T 1.889726e+02=T 90.00000=T Traj:=T positionsangstrom=T Step:=T 0=T Bead:=T pbc="F F F"
C      -42.68340000     -32.19260000     -73.94590000
C      -43.99510000     -32.25290000     -74.53480000
C      -44.59870000     -33.49430000     -74.75820000
C      -43.97570000     -34.65790000     -74.39550000
C      -42.65920000     -34.64360000     -73.84020000
C      -42.02190000     -33.38400000     -73.69660000
H      -42.16620000     -31.22590000     -73.93400000
H      -45.66730000     -33.53470000     -75.05120000
H      -42.22540000     -35.57190000     -73.52460000
H      -41.10390000     -33.35280000     -73.26210000
C      -44.78270000     -35.93270000     -74.45070000
H      -44.15630000     -36.69280000     -74.03720000
H      -45.22510000     -36.18020000     -75.46030000
C      -44.79980000     -31.07810000     -74.78000000
H      -44.17330000     -30.13880000     -74.77550000
H      -45.23750000     -31.10520000     -75.74650000
S      -46.35900000     -35.88080000     -73.42810000
S      -46.11150000     -30.67430000     -73.51590000
C      -45.75450000     -35.00490000     -71.92030000
H      -44.89380000     -35.54240000     -71.47930000
H      -45.53520000     -33.95610000     -72.15080000
C      -45.58040000     -30.79990000     -71.71380000
H      -45.41120000     -29.77030000     -71.40220000
H      -44.60670000     -31.35630000     -71.69670000
C      -46.64200000     -31.52730000     -70.85840000
H      -47.51050000     -30.85170000     -70.72750000
H      -47.07240000     -32.37890000     -71.40360000
C      -46.90900000     -34.94790000     -70.94240000
H      -47.50360000     -35.87500000     -71.04700000
H      -47.56130000     -34.18420000     -71.28740000
C      -46.38800000     -34.74470000     -69.53190000
C      -46.14080000     -35.71490000     -68.60800000
C      -46.07960000     -33.43360000     -69.02620000
H      -46.52530000     -36.74800000     -68.74300000
C      -45.68220000     -33.52510000     -67.66990000
C      -46.09940000     -32.06250000     -69.50310000
C      -45.59920000     -31.19410000     -68.59270000
S      -45.63260000     -35.14340000     -67.03650000
S      -45.15630000     -32.00560000     -67.04050000
H      -45.56510000     -30.08420000     -68.60910000
