40
Properties=species:S:1:pos:R:3 #=T CELL(abcABC):=T 1.889726e+02=T 90.00000=T Traj:=T positionsangstrom=T Step:=T 0=T Bead:=T pbc="F F F"
C      -42.43150000     -32.30330000     -73.83940000
C      -43.76130000     -32.17750000     -74.20650000
C      -44.51890000     -33.33540000     -74.42400000
C      -44.00550000     -34.59910000     -74.20840000
C      -42.69980000     -34.71270000     -73.70820000
C      -41.89030000     -33.60620000     -73.57500000
H      -41.77390000     -31.44380000     -73.70020000
H      -45.46640000     -33.21650000     -74.88750000
H      -42.29630000     -35.75700000     -73.54870000
H      -40.76720000     -33.66650000     -73.38950000
C      -44.90180000     -35.81490000     -74.36810000
H      -44.40740000     -36.72700000     -74.01900000
H      -45.17550000     -35.93550000     -75.39780000
C      -44.45520000     -30.86010000     -74.43520000
H      -43.88990000     -30.01720000     -74.21770000
H      -44.90530000     -30.81460000     -75.45590000
S      -46.57170000     -35.89140000     -73.50470000
S      -45.96280000     -30.69810000     -73.52280000
C      -46.11910000     -34.95890000     -72.00930000
H      -45.14200000     -35.30450000     -71.57350000
H      -45.81250000     -34.00010000     -72.43850000
C      -45.56460000     -31.40150000     -71.81680000
H      -44.68560000     -30.91500000     -71.38200000
H      -45.24010000     -32.44410000     -71.93100000
C      -46.75670000     -31.49580000     -70.88570000
H      -47.21160000     -30.56310000     -70.67720000
H      -47.53880000     -32.13080000     -71.25990000
C      -47.19140000     -34.82590000     -70.99490000
H      -47.78320000     -35.72340000     -70.96090000
H      -47.84330000     -34.00330000     -71.31330000
C      -46.53310000     -34.62820000     -69.59490000
C      -46.30250000     -35.67750000     -68.78250000
C      -46.14610000     -33.39050000     -68.99420000
H      -46.30970000     -36.67760000     -69.00650000
C      -45.48200000     -33.51390000     -67.78300000
C      -46.23680000     -32.01560000     -69.49150000
C      -45.61010000     -31.15030000     -68.65230000
S      -45.69070000     -35.23200000     -67.14190000
S      -44.97150000     -31.89970000     -67.23550000
H      -45.32610000     -30.14190000     -68.87220000
