40
Properties=species:S:1:pos:R:3 #=T CELL(abcABC):=T 1.889726e+02=T 90.00000=T Traj:=T positionsangstrom=T Step:=T 0=T Bead:=T pbc="F F F"
C      -42.49160000     -32.45660000     -73.71180000
C      -43.79050000     -32.26220000     -74.26570000
C      -44.50460000     -33.37370000     -74.70440000
C      -44.06180000     -34.64440000     -74.39040000
C      -42.89230000     -34.83870000     -73.71320000
C      -42.06770000     -33.77590000     -73.41590000
H      -41.89810000     -31.58690000     -73.43730000
H      -45.48000000     -33.21120000     -75.07960000
H      -42.71120000     -35.79490000     -73.33490000
H      -41.11430000     -33.84100000     -72.79320000
C      -44.93680000     -35.82970000     -74.58350000
H      -44.45210000     -36.77340000     -74.36660000
H      -45.40300000     -35.73570000     -75.60650000
C      -44.26420000     -30.83640000     -74.35660000
H      -43.52300000     -30.05760000     -73.94990000
H      -44.36800000     -30.43760000     -75.38540000
S      -46.45210000     -35.73200000     -73.47690000
S      -45.83460000     -30.59970000     -73.43290000
C      -45.98530000     -35.36920000     -71.72100000
H      -45.51190000     -36.24090000     -71.25360000
H      -45.38540000     -34.49090000     -71.64390000
C      -45.40760000     -31.16060000     -71.76570000
H      -44.88120000     -30.33210000     -71.26520000
H      -44.72510000     -32.01000000     -71.81460000
C      -46.69190000     -31.45810000     -70.92390000
H      -47.06880000     -30.39770000     -70.79850000
H      -47.34050000     -32.17100000     -71.43710000
C      -47.29190000     -35.08690000     -70.92490000
H      -47.87350000     -36.01700000     -70.88190000
H      -47.95020000     -34.34920000     -71.42070000
C      -46.86810000     -34.63370000     -69.53870000
C      -46.62300000     -35.61160000     -68.60530000
C      -46.39070000     -33.32270000     -69.07280000
H      -46.82320000     -36.65500000     -68.66990000
C      -45.71620000     -33.45240000     -67.82110000
C      -46.27180000     -31.92370000     -69.53730000
C      -45.52140000     -31.14900000     -68.68770000
S      -45.50010000     -35.09490000     -67.29460000
S      -44.96550000     -32.00240000     -67.27340000
H      -45.24730000     -30.12060000     -68.92520000
