40
Properties=species:S:1:pos:R:3 #=T CELL(abcABC):=T 1.889726e+02=T 90.00000=T Traj:=T positionsangstrom=T Step:=T 0=T Bead:=T pbc="F F F"
C      -42.56100000     -32.52880000     -73.47930000
C      -43.81910000     -32.24060000     -74.19730000
C      -44.54660000     -33.36950000     -74.61450000
C      -44.13720000     -34.65260000     -74.27870000
C      -42.93480000     -34.87740000     -73.62610000
C      -42.07960000     -33.79390000     -73.24410000
H      -42.02120000     -31.64800000     -73.15850000
H      -45.51280000     -33.06220000     -75.14370000
H      -42.51790000     -35.82770000     -73.51840000
H      -41.11240000     -34.02360000     -72.81570000
C      -45.14900000     -35.83090000     -74.49030000
H      -44.64430000     -36.76600000     -74.31100000
H      -45.33040000     -35.98520000     -75.54090000
C      -44.23300000     -30.83600000     -74.51020000
H      -43.35010000     -30.16890000     -74.37300000
H      -44.52820000     -30.85360000     -75.52250000
S      -46.75240000     -35.73500000     -73.57750000
S      -45.79760000     -30.43540000     -73.52920000
C      -46.12590000     -35.65650000     -71.86660000
H      -45.98580000     -36.66790000     -71.48180000
H      -45.11930000     -35.11320000     -71.86290000
C      -45.30540000     -30.95800000     -71.75970000
H      -44.91890000     -30.12360000     -71.17810000
H      -44.52650000     -31.64940000     -71.96940000
C      -46.49360000     -31.56540000     -71.01130000
H      -47.43560000     -30.97460000     -70.99090000
H      -46.79260000     -32.39950000     -71.63470000
C      -47.11110000     -34.87640000     -70.94020000
H      -48.10660000     -35.29380000     -70.80080000
H      -47.38440000     -33.89750000     -71.33750000
C      -46.53750000     -34.67690000     -69.60410000
C      -46.40030000     -35.66510000     -68.65160000
C      -46.01150000     -33.42270000     -69.19670000
H      -46.88640000     -36.67380000     -68.70190000
C      -45.51110000     -33.49040000     -67.89010000
C      -46.02870000     -32.04010000     -69.64460000
C      -45.58480000     -31.17350000     -68.65750000
S      -45.69630000     -35.04310000     -67.14730000
S      -44.95940000     -32.01020000     -67.22140000
H      -45.54420000     -30.02900000     -68.71790000
