40
Properties=species:S:1:pos:R:3 #=T CELL(abcABC):=T 1.889726e+02=T 90.00000=T Traj:=T positionsangstrom=T Step:=T 0=T Bead:=T pbc="F F F"
C      -43.72620000     -33.64570000     -68.52960000
C      -43.59870000     -32.22850000     -68.67710000
C      -42.93500000     -31.72020000     -69.84110000
C      -42.25770000     -32.67170000     -70.60460000
C      -42.36120000     -34.05230000     -70.41150000
C      -43.06880000     -34.57590000     -69.34250000
H      -44.28300000     -34.05110000     -67.66010000
H      -42.93030000     -30.62870000     -70.06510000
H      -41.91500000     -34.61710000     -71.22670000
H      -43.08470000     -35.70910000     -69.09440000
C      -41.55160000     -32.11420000     -71.82940000
H      -40.53930000     -32.34410000     -71.86150000
H      -41.65180000     -31.01790000     -71.84090000
C      -44.45620000     -31.33450000     -67.88020000
H      -44.60410000     -31.67710000     -66.81580000
H      -43.92790000     -30.37270000     -67.80700000
S      -42.40020000     -32.76850000     -73.32660000
S      -46.05490000     -30.94400000     -68.63210000
C      -44.04760000     -31.82860000     -73.40780000
H      -43.67980000     -30.76960000     -73.15090000
H      -44.38680000     -31.87930000     -74.43000000
C      -46.82110000     -32.53380000     -69.04740000
H      -47.48350000     -32.88700000     -68.25770000
H      -46.06510000     -33.27840000     -69.21290000
C      -47.72070000     -32.43180000     -70.29140000
H      -48.70700000     -32.20510000     -70.06930000
H      -47.42210000     -31.53570000     -70.83480000
C      -45.11330000     -32.29130000     -72.38840000
H      -45.90920000     -31.59240000     -72.15720000
H      -44.68030000     -32.33540000     -71.37500000
C      -45.74370000     -33.58000000     -72.82450000
C      -45.21970000     -34.47710000     -73.76640000
C      -46.99360000     -34.08500000     -72.32110000
H      -44.40920000     -34.17030000     -74.45200000
C      -47.45840000     -35.23490000     -72.89160000
C      -47.84730000     -33.64890000     -71.24090000
C      -48.86800000     -34.57380000     -70.99120000
S      -46.32640000     -35.82680000     -74.04820000
S      -48.91810000     -35.90760000     -72.24840000
H      -49.63760000     -34.49180000     -70.27980000
