40
Properties=species:S:1:pos:R:3 #=T CELL(abcABC):=T 1.889726e+02=T 90.00000=T Traj:=T positionsangstrom=T Step:=T 0=T Bead:=T pbc="F F F"
C      -41.73500000     -33.16410000     -71.62100000
C      -42.18360000     -34.40820000     -72.15930000
C      -43.02750000     -34.36220000     -73.30260000
C      -43.60900000     -33.20650000     -73.84210000
C      -43.22280000     -32.02130000     -73.21090000
C      -42.26000000     -31.97510000     -72.16070000
H      -41.00930000     -33.07500000     -70.70860000
H      -43.33320000     -35.30380000     -73.68180000
H      -43.48280000     -31.06670000     -73.72930000
H      -41.89720000     -30.98410000     -71.89030000
C      -44.65640000     -33.37370000     -74.87300000
H      -44.59640000     -34.20250000     -75.48950000
H      -44.66570000     -32.52840000     -75.54010000
C      -41.81780000     -35.66630000     -71.47860000
H      -41.59700000     -36.44860000     -72.10880000
H      -40.97110000     -35.42940000     -70.77410000
S      -46.36360000     -33.31510000     -74.13010000
S      -43.31570000     -36.30410000     -70.55470000
C      -46.30610000     -34.67530000     -72.97160000
H      -46.28070000     -35.67980000     -73.44990000
H      -45.36700000     -34.48930000     -72.42770000
C      -43.90230000     -34.87560000     -69.59280000
H      -43.62310000     -33.94000000     -70.05810000
H      -43.39760000     -34.75070000     -68.60940000
C      -45.41140000     -35.01840000     -69.14250000
H      -45.89260000     -35.81030000     -69.73820000
H      -45.40270000     -35.31150000     -68.06720000
C      -47.49440000     -34.68590000     -72.03550000
H      -47.40250000     -35.27670000     -71.19850000
H      -48.34200000     -34.91570000     -72.61250000
C      -47.67560000     -33.37210000     -71.34200000
C      -48.45440000     -32.38420000     -71.79650000
C      -46.96250000     -33.01100000     -70.12740000
H      -48.97200000     -32.36660000     -72.76550000
C      -47.20150000     -31.67640000     -69.75050000
C      -46.10110000     -33.64120000     -69.13020000
C      -45.81350000     -32.82250000     -68.08930000
S      -48.39120000     -30.92040000     -70.82510000
S      -46.48040000     -31.25070000     -68.25990000
H      -45.28240000     -33.18640000     -67.23130000
