40
Properties=species:S:1:pos:R:3 #=T CELL(abcABC):=T 1.889726e+02=T 90.00000=T Traj:=T positionsangstrom=T Step:=T 0=T Bead:=T pbc="F F F"
C      -42.83540000     -32.59300000     -73.25820000
C      -43.99260000     -32.27770000     -74.03220000
C      -44.74490000     -33.29380000     -74.56140000
C      -44.59770000     -34.67220000     -74.17410000
C      -43.41200000     -34.92360000     -73.47480000
C      -42.52550000     -33.93350000     -73.05460000
H      -42.22740000     -31.80340000     -72.74840000
H      -45.60130000     -33.11540000     -75.16450000
H      -43.06460000     -35.96400000     -73.28580000
H      -41.56590000     -34.14860000     -72.67180000
C      -45.49090000     -35.75100000     -74.67580000
H      -44.96310000     -36.70510000     -74.69450000
H      -45.82310000     -35.49770000     -75.67880000
C      -44.40300000     -30.79940000     -74.29110000
H      -43.69340000     -30.05240000     -73.91430000
H      -44.50330000     -30.63070000     -75.36630000
S      -47.03960000     -35.81040000     -73.57900000
S      -46.04330000     -30.30050000     -73.47890000
C      -46.25950000     -35.40370000     -71.95990000
H      -45.64950000     -36.24340000     -71.70460000
H      -45.59570000     -34.64900000     -72.19890000
C      -45.55050000     -30.53070000     -71.81100000
H      -46.11110000     -29.83280000     -71.23320000
H      -44.46830000     -30.18530000     -71.76460000
C      -45.75300000     -31.93820000     -71.31010000
H      -46.78440000     -32.08550000     -71.43350000
H      -45.22450000     -32.67070000     -71.95470000
C      -47.19080000     -35.01310000     -70.80900000
H      -47.94650000     -35.87700000     -70.62360000
H      -47.77450000     -34.11750000     -70.99960000
C      -46.40180000     -34.68470000     -69.57350000
C      -46.36140000     -35.61840000     -68.55440000
C      -45.76510000     -33.43560000     -69.16870000
H      -46.72430000     -36.60540000     -68.51860000
C      -45.29960000     -33.45960000     -67.86330000
C      -45.39730000     -32.22220000     -69.84520000
C      -44.67010000     -31.34700000     -69.02170000
S      -45.73410000     -34.99090000     -67.06430000
S      -44.35300000     -32.04790000     -67.42780000
H      -44.17080000     -30.43740000     -69.39940000
