40
Properties=species:S:1:pos:R:3 #=T CELL(abcABC):=T 1.889726e+02=T 90.00000=T Traj:=T positionsangstrom=T Step:=T 0=T Bead:=T pbc="F F F"
C      -43.03530000     -32.51700000     -73.20760000
C      -44.07540000     -32.17500000     -74.15010000
C      -44.85780000     -33.23420000     -74.63120000
C      -44.53180000     -34.58580000     -74.39790000
C      -43.43830000     -34.88370000     -73.53030000
C      -42.68890000     -33.81910000     -73.00780000
H      -42.40220000     -31.74610000     -72.75250000
H      -45.67320000     -32.98190000     -75.31960000
H      -43.14330000     -35.94100000     -73.37630000
H      -41.89020000     -34.05360000     -72.27120000
C      -45.51040000     -35.66240000     -74.76420000
H      -45.04510000     -36.67200000     -74.79000000
H      -45.99630000     -35.47690000     -75.72780000
C      -44.41440000     -30.78250000     -74.46950000
H      -43.64730000     -30.08270000     -74.09300000
H      -44.59210000     -30.65340000     -75.53960000
S      -46.85860000     -35.52510000     -73.49600000
S      -46.04000000     -30.39950000     -73.58800000
C      -45.97590000     -35.38010000     -71.80820000
H      -45.47120000     -36.35700000     -71.50930000
H      -45.20490000     -34.57120000     -71.88190000
C      -45.66100000     -30.56870000     -71.71520000
H      -46.24090000     -29.84980000     -71.10980000
H      -44.63230000     -30.32080000     -71.47480000
C      -45.96450000     -31.95450000     -71.24280000
H      -47.04180000     -32.14410000     -71.21540000
H      -45.56800000     -32.67690000     -71.97170000
C      -47.08980000     -35.00120000     -70.78260000
H      -47.79100000     -35.80890000     -70.67960000
H      -47.56880000     -34.08040000     -71.21690000
C      -46.59330000     -34.71850000     -69.43210000
C      -46.81980000     -35.50210000     -68.32800000
C      -45.80370000     -33.53690000     -69.12710000
H      -47.28630000     -36.44920000     -68.27500000
C      -45.25210000     -33.56440000     -67.81390000
C      -45.35640000     -32.34590000     -69.91250000
C      -44.47930000     -31.60900000     -69.15810000
S      -45.72660000     -35.01430000     -66.96650000
S      -44.17010000     -32.23070000     -67.50450000
H      -43.92300000     -30.79150000     -69.51010000
