40
Properties=species:S:1:pos:R:3 #=T CELL(abcABC):=T 1.889726e+02=T 90.00000=T Traj:=T positionsangstrom=T Step:=T 0=T Bead:=T pbc="F F F"
C      -42.74060000     -32.20710000     -73.55190000
C      -44.06560000     -31.96450000     -74.04700000
C      -44.91120000     -33.06760000     -74.30320000
C      -44.46230000     -34.43670000     -74.02100000
C      -43.26040000     -34.60130000     -73.36490000
C      -42.42500000     -33.50760000     -73.13020000
H      -42.02960000     -31.40160000     -73.40780000
H      -45.92150000     -33.00480000     -74.71240000
H      -42.95220000     -35.56090000     -73.01910000
H      -41.45550000     -33.65120000     -72.65790000
C      -45.46120000     -35.61310000     -74.35550000
H      -45.11300000     -36.63000000     -74.00410000
H      -45.62570000     -35.64310000     -75.46920000
C      -44.58870000     -30.60320000     -74.39330000
H      -43.94230000     -29.77950000     -74.09150000
H      -44.83050000     -30.49380000     -75.50650000
S      -47.09270000     -35.33730000     -73.59840000
S      -46.16970000     -30.28870000     -73.46340000
C      -46.53710000     -35.65730000     -71.82010000
H      -46.48290000     -36.77850000     -71.70710000
H      -45.48300000     -35.35200000     -71.73130000
C      -45.53590000     -30.79540000     -71.80610000
H      -45.90400000     -30.06110000     -71.03690000
H      -44.50000000     -30.52470000     -71.91470000
C      -45.87380000     -32.23730000     -71.32090000
H      -46.97180000     -32.31050000     -71.23640000
H      -45.55180000     -32.85510000     -72.14910000
C      -47.41150000     -35.00410000     -70.71500000
H      -48.24530000     -35.70210000     -70.45990000
H      -47.87860000     -34.11990000     -71.14750000
C      -46.66420000     -34.74400000     -69.44610000
C      -46.70760000     -35.62260000     -68.40220000
C      -45.71700000     -33.69660000     -69.18670000
H      -47.42110000     -36.49810000     -68.32790000
C      -45.19330000     -33.71820000     -67.88570000
C      -45.24990000     -32.56000000     -69.96730000
C      -44.24630000     -31.91850000     -69.37730000
S      -45.68200000     -35.11860000     -67.02180000
S      -44.00720000     -32.36100000     -67.63040000
H      -43.75930000     -30.96520000     -69.66310000
