40
Properties=species:S:1:pos:R:3 #=T CELL(abcABC):=T 1.889726e+02=T 90.00000=T Traj:=T positionsangstrom=T Step:=T 0=T Bead:=T pbc="F F F"
C      -43.65410000     -33.64760000     -68.36240000
C      -43.69250000     -32.24880000     -68.63240000
C      -42.94730000     -31.78090000     -69.78410000
C      -42.37720000     -32.71100000     -70.65770000
C      -42.36730000     -34.08300000     -70.33840000
C      -42.99960000     -34.52540000     -69.19560000
H      -44.23090000     -33.92170000     -67.51390000
H      -42.85230000     -30.72170000     -70.03450000
H      -41.94150000     -34.70350000     -71.09390000
H      -43.11040000     -35.62850000     -69.01130000
C      -41.61220000     -32.26880000     -71.89400000
H      -40.57630000     -32.69650000     -71.97100000
H      -41.46670000     -31.17000000     -71.79320000
C      -44.51060000     -31.41380000     -67.76090000
H      -44.74700000     -31.92920000     -66.84980000
H      -44.05040000     -30.48690000     -67.44530000
S      -42.40550000     -32.68190000     -73.52840000
S      -46.18810000     -30.91190000     -68.64660000
C      -43.93660000     -31.65930000     -73.26330000
H      -43.67060000     -30.70170000     -72.87890000
H      -44.29360000     -31.45690000     -74.27910000
C      -46.75060000     -32.66070000     -69.19410000
H      -47.11510000     -33.02920000     -68.19480000
H      -45.85510000     -33.19690000     -69.52380000
C      -47.70910000     -32.43350000     -70.34150000
H      -48.62310000     -32.12860000     -69.84160000
H      -47.35100000     -31.61130000     -71.03570000
C      -45.05640000     -32.27440000     -72.34690000
H      -45.90030000     -31.52750000     -72.37170000
H      -44.66710000     -32.30750000     -71.30490000
C      -45.67100000     -33.60240000     -72.74460000
C      -45.18740000     -34.49910000     -73.67950000
C      -46.91600000     -34.16400000     -72.20980000
H      -44.26640000     -34.42710000     -74.21410000
C      -47.40740000     -35.27690000     -72.82370000
C      -47.84410000     -33.67490000     -71.22810000
C      -48.94320000     -34.51570000     -71.20220000
S      -46.25650000     -35.77310000     -74.06320000
S      -48.95000000     -35.90930000     -72.27030000
H      -49.85650000     -34.43600000     -70.65570000
