40
Properties=species:S:1:pos:R:3 #=T CELL(abcABC):=T 1.889726e+02=T 90.00000=T Traj:=T positionsangstrom=T Step:=T 0=T Bead:=T pbc="F F F"
C      -43.37010000     -32.83340000     -74.44650000
C      -44.56270000     -32.07890000     -74.44260000
C      -45.78420000     -32.75960000     -74.48530000
C      -45.89760000     -34.14760000     -74.43710000
C      -44.66160000     -34.88440000     -74.35470000
C      -43.42520000     -34.21520000     -74.32020000
H      -42.46330000     -32.26390000     -74.32840000
H      -46.62430000     -32.06750000     -74.50890000
H      -44.51840000     -35.95110000     -74.35090000
H      -42.47220000     -34.71730000     -74.23730000
C      -47.17840000     -34.94770000     -74.68410000
H      -46.76760000     -35.85140000     -75.19970000
H      -47.89540000     -34.51250000     -75.37710000
C      -44.51010000     -30.59600000     -74.28550000
H      -43.45200000     -30.40960000     -74.29970000
H      -44.94280000     -30.07870000     -75.15910000
S      -47.96950000     -35.53630000     -73.06290000
S      -45.50610000     -29.87100000     -72.87230000
C      -46.73910000     -35.63510000     -71.74410000
H      -46.77660000     -36.67180000     -71.43910000
H      -45.69850000     -35.43490000     -72.04100000
C      -44.60040000     -30.47020000     -71.40090000
H      -44.38470000     -29.73440000     -70.67520000
H      -43.63400000     -30.92660000     -71.69150000
C      -45.54290000     -31.60470000     -70.75240000
H      -46.57330000     -31.19940000     -70.52190000
H      -45.60540000     -32.38110000     -71.47040000
C      -47.11140000     -34.72070000     -70.66580000
H      -48.07830000     -34.98120000     -70.32970000
H      -47.27770000     -33.69870000     -70.95730000
C      -46.17450000     -34.72640000     -69.46330000
C      -46.13020000     -35.68620000     -68.42380000
C      -45.26070000     -33.64070000     -69.08740000
H      -46.56230000     -36.63730000     -68.57140000
C      -44.56620000     -33.89820000     -67.93980000
C      -44.89700000     -32.25490000     -69.57270000
C      -43.83260000     -31.66740000     -68.88120000
S      -44.97290000     -35.44040000     -67.22910000
S      -43.21450000     -32.79760000     -67.62610000
H      -43.27870000     -30.80410000     -69.14640000
