40
Properties=species:S:1:pos:R:3 #=T CELL(abcABC):=T 1.889726e+02=T 90.00000=T Traj:=T positionsangstrom=T Step:=T 0=T Bead:=T pbc="F F F"
C      -41.34580000     -32.83800000     -71.29760000
C      -41.93200000     -34.12450000     -71.23290000
C      -42.72420000     -34.48070000     -72.32160000
C      -43.05100000     -33.71230000     -73.39420000
C      -42.38770000     -32.46850000     -73.46440000
C      -41.56530000     -31.98950000     -72.43950000
H      -40.58870000     -32.59670000     -70.55310000
H      -43.01580000     -35.53390000     -72.36420000
H      -42.61380000     -31.85840000     -74.34870000
H      -40.99930000     -31.00970000     -72.53150000
C      -43.86600000     -34.27610000     -74.50840000
H      -44.33690000     -35.16670000     -74.15880000
H      -43.21910000     -34.64790000     -75.28590000
C      -41.60860000     -35.00370000     -70.03050000
H      -40.78360000     -35.65390000     -70.24480000
H      -41.38620000     -34.36110000     -69.20000000
S      -45.14520000     -33.11800000     -75.18740000
S      -43.01570000     -36.07500000     -69.49170000
C      -45.98080000     -32.59830000     -73.58360000
H      -45.31160000     -32.37740000     -72.77510000
H      -46.52580000     -31.66380000     -73.85310000
C      -44.29790000     -34.85190000     -69.04740000
H      -43.82850000     -34.11070000     -68.33690000
H      -45.09900000     -35.45200000     -68.49370000
C      -44.99700000     -34.07370000     -70.26780000
H      -44.40230000     -33.24740000     -70.66950000
H      -45.06380000     -34.77650000     -71.08670000
C      -46.88960000     -33.65500000     -73.01710000
H      -46.28830000     -34.54080000     -72.74490000
H      -47.67360000     -34.06300000     -73.75150000
C      -47.71950000     -33.04990000     -71.97180000
C      -48.86620000     -32.40510000     -72.23770000
C      -47.34020000     -32.96470000     -70.53910000
H      -49.51740000     -32.47410000     -73.16040000
C      -48.24870000     -32.24850000     -69.80040000
C      -46.24890000     -33.50010000     -69.73680000
C      -46.36670000     -33.13710000     -68.44050000
S      -49.63380000     -31.73320000     -70.74870000
S      -47.82030000     -32.22260000     -68.04450000
H      -45.59250000     -33.30520000     -67.58920000
