40
Properties=species:S:1:pos:R:3 #=T CELL(abcABC):=T 1.889726e+02=T 90.00000=T Traj:=T positionsangstrom=T Step:=T 0=T Bead:=T pbc="F F F"
C      -43.39560000     -32.83460000     -74.14260000
C      -44.56390000     -32.09750000     -74.29450000
C      -45.80010000     -32.67810000     -74.45600000
C      -45.89030000     -34.04810000     -74.64440000
C      -44.77420000     -34.83550000     -74.44500000
C      -43.46360000     -34.27210000     -74.13150000
H      -42.39250000     -32.51680000     -74.05010000
H      -46.62790000     -31.96170000     -74.55950000
H      -44.91650000     -35.93400000     -74.49300000
H      -42.64600000     -35.02860000     -74.09400000
C      -47.24010000     -34.68180000     -74.83740000
H      -47.11180000     -35.65070000     -75.28520000
H      -47.92710000     -33.97780000     -75.34720000
C      -44.49890000     -30.56310000     -74.34170000
H      -43.48570000     -30.21350000     -74.48290000
H      -45.12010000     -30.30390000     -75.22240000
S      -48.10030000     -34.85040000     -73.12790000
S      -45.40450000     -29.88580000     -72.87630000
C      -46.79910000     -35.22770000     -71.84350000
H      -46.50320000     -36.26820000     -71.83990000
H      -45.94780000     -34.65460000     -72.18770000
C      -44.64380000     -30.61390000     -71.33370000
H      -44.65910000     -29.84160000     -70.61810000
H      -43.56330000     -30.88980000     -71.41890000
C      -45.35540000     -31.89040000     -70.84530000
H      -46.38740000     -31.56300000     -70.69010000
H      -45.37120000     -32.61260000     -71.61380000
C      -47.22690000     -34.73700000     -70.47760000
H      -48.11190000     -35.32670000     -70.07460000
H      -47.49550000     -33.66110000     -70.59940000
C      -46.11300000     -34.87280000     -69.43480000
C      -45.94440000     -35.93390000     -68.61630000
C      -45.14740000     -33.86020000     -69.14220000
H      -46.57430000     -36.85420000     -68.62640000
C      -44.48250000     -34.06800000     -67.92530000
C      -44.83450000     -32.54320000     -69.64770000
C      -43.79160000     -31.98880000     -68.92990000
S      -44.86350000     -35.70780000     -67.21880000
S      -43.36360000     -32.83640000     -67.52710000
H      -43.30760000     -30.99710000     -69.16550000
