40
Properties=species:S:1:pos:R:3 #=T CELL(abcABC):=T 1.889726e+02=T 90.00000=T Traj:=T positionsangstrom=T Step:=T 0=T Bead:=T pbc="F F F"
C      -43.32600000     -32.74750000     -74.32440000
C      -44.60360000     -32.08080000     -74.41560000
C      -45.74030000     -32.90990000     -74.58320000
C      -45.63230000     -34.31420000     -74.43770000
C      -44.33030000     -34.83600000     -74.34310000
C      -43.18540000     -34.09560000     -74.32950000
H      -42.38040000     -32.08410000     -74.23160000
H      -46.69040000     -32.41310000     -74.61160000
H      -44.35740000     -35.95740000     -74.32780000
H      -42.31020000     -34.65380000     -74.03220000
C      -47.04850000     -35.02530000     -74.48920000
H      -46.85630000     -36.13030000     -74.72670000
H      -47.55370000     -34.76060000     -75.41050000
C      -44.75940000     -30.65600000     -74.41610000
H      -43.78560000     -30.22820000     -74.63210000
H      -45.38880000     -30.28630000     -75.17570000
S      -48.11860000     -34.63120000     -73.08430000
S      -45.41720000     -29.82510000     -72.93710000
C      -47.01570000     -35.12860000     -71.65690000
H      -46.93280000     -36.23470000     -71.52750000
H      -46.03200000     -34.79680000     -71.93400000
C      -44.63680000     -30.64350000     -71.50070000
H      -44.68800000     -29.89290000     -70.68760000
H      -43.62570000     -30.82360000     -71.74730000
C      -45.33580000     -31.98320000     -70.98320000
H      -46.30790000     -31.65770000     -70.76180000
H      -45.41250000     -32.72570000     -71.75300000
C      -47.37260000     -34.48010000     -70.38480000
H      -48.39530000     -34.80000000     -70.02390000
H      -47.45950000     -33.40900000     -70.59000000
C      -46.35120000     -34.72240000     -69.28450000
C      -46.39840000     -35.70830000     -68.37980000
C      -45.25570000     -33.74970000     -69.05340000
H      -47.13200000     -36.54080000     -68.31050000
C      -44.56960000     -34.11010000     -67.90890000
C      -44.68630000     -32.61730000     -69.74130000
C      -43.51480000     -32.20710000     -69.10310000
S      -45.13180000     -35.63760000     -67.14400000
S      -43.13700000     -33.06920000     -67.65570000
H      -42.94000000     -31.38900000     -69.46610000
