40
Properties=species:S:1:pos:R:3 #=T CELL(abcABC):=T 1.889726e+02=T 90.00000=T Traj:=T positionsangstrom=T Step:=T 0=T Bead:=T pbc="F F F"
C      -43.36630000     -32.61470000     -74.45560000
C      -44.62370000     -31.99430000     -74.41670000
C      -45.77310000     -32.81950000     -74.35210000
C      -45.62450000     -34.22690000     -74.35700000
C      -44.32920000     -34.74470000     -74.38270000
C      -43.21520000     -33.95780000     -74.38470000
H      -42.51720000     -31.90100000     -74.54980000
H      -46.76430000     -32.37860000     -74.31820000
H      -44.09790000     -35.78970000     -74.47510000
H      -42.25010000     -34.40320000     -74.34080000
C      -46.75670000     -35.19560000     -74.36940000
H      -46.37590000     -36.17310000     -74.17360000
H      -47.36680000     -34.98510000     -75.23770000
C      -44.75430000     -30.56180000     -74.40750000
H      -43.68270000     -30.24510000     -74.59360000
H      -45.30390000     -30.19330000     -75.28060000
S      -48.00360000     -34.79320000     -73.05970000
S      -45.45110000     -29.94580000     -72.79590000
C      -46.98830000     -34.98460000     -71.54520000
H      -46.84520000     -36.06740000     -71.40020000
H      -45.97320000     -34.58880000     -71.64270000
C      -44.43660000     -30.77390000     -71.50180000
H      -44.14310000     -30.08190000     -70.67730000
H      -43.52810000     -31.18100000     -72.06000000
C      -45.40110000     -31.88740000     -70.94530000
H      -46.42020000     -31.44280000     -70.53190000
H      -45.76550000     -32.60280000     -71.76600000
C      -47.61070000     -34.41830000     -70.30740000
H      -48.49920000     -35.01910000     -70.04210000
H      -47.81960000     -33.36310000     -70.53320000
C      -46.59870000     -34.49630000     -69.16170000
C      -46.69490000     -35.45450000     -68.17350000
C      -45.32210000     -33.69430000     -69.13820000
H      -47.42550000     -36.23200000     -67.94280000
C      -44.51600000     -34.24150000     -68.13330000
C      -44.68500000     -32.55100000     -69.77430000
C      -43.46100000     -32.21690000     -69.17050000
S      -45.22860000     -35.47640000     -67.20560000
S      -42.99520000     -33.40920000     -67.91920000
H      -42.77980000     -31.53570000     -69.58370000
