40
Properties=species:S:1:pos:R:3 #=T CELL(abcABC):=T 1.889726e+02=T 90.00000=T Traj:=T positionsangstrom=T Step:=T 0=T Bead:=T pbc="F F F"
C      -43.40600000     -32.47550000     -74.44980000
C      -44.69800000     -31.97170000     -74.37870000
C      -45.72850000     -32.92770000     -74.50800000
C      -45.50890000     -34.21140000     -74.27700000
C      -44.20610000     -34.75320000     -74.16650000
C      -43.13710000     -33.85970000     -74.37900000
H      -42.61310000     -31.76220000     -74.57070000
H      -46.73010000     -32.58600000     -74.65430000
H      -44.01570000     -35.83360000     -74.20110000
H      -42.03720000     -34.17410000     -74.36850000
C      -46.72540000     -35.15920000     -74.22780000
H      -46.41980000     -36.17470000     -74.07580000
H      -47.23260000     -34.98030000     -75.14410000
C      -44.95350000     -30.45420000     -74.45890000
H      -44.06000000     -29.99380000     -74.89210000
H      -45.64060000     -30.23700000     -75.21800000
S      -48.08560000     -34.81490000     -72.99150000
S      -45.46410000     -29.68830000     -72.78020000
C      -47.14060000     -34.87990000     -71.43070000
H      -47.03570000     -35.92740000     -71.18950000
H      -46.12140000     -34.53320000     -71.65960000
C      -44.50560000     -30.84620000     -71.63330000
H      -44.20620000     -30.12380000     -70.86310000
H      -43.72870000     -31.15620000     -72.29010000
C      -45.27980000     -32.04040000     -71.04910000
H      -46.26600000     -31.80270000     -70.72460000
H      -45.51540000     -32.66460000     -71.91730000
C      -47.67430000     -34.14430000     -70.14810000
H      -48.58420000     -34.64090000     -69.90830000
H      -47.92040000     -33.08000000     -70.33130000
C      -46.60620000     -34.36150000     -69.06970000
C      -46.79410000     -35.27200000     -68.06870000
C      -45.26090000     -33.86030000     -69.14700000
H      -47.63970000     -35.80340000     -67.72850000
C      -44.43540000     -34.32290000     -68.11090000
C      -44.59960000     -32.77650000     -69.95430000
C      -43.30200000     -32.66750000     -69.52790000
S      -45.32550000     -35.45450000     -67.12060000
S      -42.85290000     -33.63290000     -68.06670000
H      -42.54180000     -32.00330000     -69.98620000
