40
Properties=species:S:1:pos:R:3 #=T CELL(abcABC):=T 1.889726e+02=T 90.00000=T Traj:=T positionsangstrom=T Step:=T 0=T Bead:=T pbc="F F F"
C      -44.28320000     -30.45440000     -70.00370000
C      -44.08390000     -31.50840000     -69.05280000
C      -43.00170000     -32.49070000     -69.27250000
C      -42.03850000     -32.23520000     -70.30380000
C      -42.24690000     -31.11270000     -71.15500000
C      -43.39680000     -30.26390000     -71.02650000
H      -45.02170000     -29.71580000     -69.75470000
H      -42.99090000     -33.32750000     -68.56690000
H      -41.58250000     -30.88760000     -71.93740000
H      -43.41720000     -29.44960000     -71.80000000
C      -40.86850000     -33.16850000     -70.58100000
H      -40.46600000     -33.58920000     -69.68380000
H      -40.25460000     -32.58790000     -71.24770000
C      -44.96260000     -31.80930000     -67.85700000
H      -44.75110000     -32.83820000     -67.49020000
H      -44.74200000     -31.06520000     -67.03100000
S      -41.38410000     -34.65380000     -71.59220000
S      -46.80540000     -31.58380000     -67.86140000
C      -42.94940000     -34.14460000     -72.49780000
H      -42.89920000     -33.16530000     -72.93350000
H      -42.97280000     -34.81910000     -73.34710000
C      -47.34880000     -32.73620000     -69.27340000
H      -48.42320000     -32.73510000     -69.21120000
H      -46.94800000     -33.77840000     -69.05700000
C      -47.03380000     -32.28420000     -70.77990000
H      -47.55650000     -31.29260000     -70.85630000
H      -46.01510000     -31.99610000     -70.98310000
C      -44.25460000     -34.35330000     -71.62440000
H      -44.35030000     -33.39520000     -71.18450000
H      -44.08700000     -35.18900000     -70.86370000
C      -45.47480000     -34.84370000     -72.53030000
C      -45.39340000     -35.97510000     -73.29590000
C      -46.79650000     -34.24300000     -72.56870000
H      -44.60100000     -36.72500000     -73.19240000
C      -47.70500000     -34.96740000     -73.38100000
C      -47.53550000     -33.18730000     -71.94310000
C      -48.85140000     -33.09980000     -72.29850000
S      -46.90000000     -36.35040000     -74.11360000
S      -49.34300000     -34.30970000     -73.48740000
H      -49.55520000     -32.30610000     -72.01320000
