40
Properties=species:S:1:pos:R:3 #=T CELL(abcABC):=T 1.889726e+02=T 90.00000=T Traj:=T positionsangstrom=T Step:=T 0=T Bead:=T pbc="F F F"
C      -44.42720000     -30.47340000     -70.01330000
C      -44.13930000     -31.50140000     -69.06920000
C      -43.02750000     -32.33900000     -69.23760000
C      -42.14650000     -32.11820000     -70.35810000
C      -42.42200000     -31.08640000     -71.27050000
C      -43.60560000     -30.37420000     -71.10000000
H      -45.44190000     -29.99700000     -69.93600000
H      -42.79430000     -33.19460000     -68.56120000
H      -41.85060000     -30.86650000     -72.17310000
H      -43.89340000     -29.73720000     -71.90920000
C      -40.98350000     -33.06200000     -70.43830000
H      -40.57590000     -33.34390000     -69.43900000
H      -40.09730000     -32.55850000     -70.94200000
C      -44.98980000     -31.72390000     -67.86190000
H      -44.71520000     -32.69960000     -67.42920000
H      -44.84670000     -31.00770000     -67.13160000
S      -41.39920000     -34.66650000     -71.30770000
S      -46.86040000     -31.79420000     -68.05860000
C      -42.84940000     -34.38040000     -72.40680000
H      -42.69250000     -33.40370000     -72.91500000
H      -42.69880000     -35.26180000     -73.05700000
C      -47.19500000     -33.02170000     -69.43000000
H      -48.16340000     -33.42120000     -69.31190000
H      -46.49210000     -33.78270000     -69.25060000
C      -47.00400000     -32.27970000     -70.79950000
H      -47.57360000     -31.35700000     -70.75180000
H      -45.97700000     -32.01070000     -70.91330000
C      -44.21830000     -34.34770000     -71.70680000
H      -44.42310000     -33.35980000     -71.35420000
H      -44.15410000     -34.88900000     -70.77640000
C      -45.41070000     -34.79750000     -72.54990000
C      -45.32460000     -35.89880000     -73.34490000
C      -46.71850000     -34.19440000     -72.60450000
H      -44.43280000     -36.49690000     -73.45900000
C      -47.68280000     -34.94260000     -73.34890000
C      -47.45140000     -33.16340000     -71.90580000
C      -48.75720000     -33.06670000     -72.29120000
S      -46.90910000     -36.30970000     -74.07510000
S      -49.22790000     -34.13730000     -73.50680000
H      -49.42780000     -32.42530000     -71.74930000
