40
Properties=species:S:1:pos:R:3 #=T CELL(abcABC):=T 1.889726e+02=T 90.00000=T Traj:=T positionsangstrom=T Step:=T 0=T Bead:=T pbc="F F F"
C      -44.55000000     -30.26020000     -69.52180000
C      -44.17230000     -31.31850000     -68.61920000
C      -43.15870000     -32.17780000     -69.05300000
C      -42.53530000     -31.94680000     -70.28160000
C      -42.78400000     -30.88260000     -71.12250000
C      -43.82170000     -29.95710000     -70.70780000
H      -45.37370000     -29.69820000     -69.18860000
H      -42.78250000     -32.97090000     -68.47360000
H      -42.29070000     -30.80420000     -72.08020000
H      -44.09840000     -29.17760000     -71.34600000
C      -41.31320000     -32.79990000     -70.62060000
H      -40.62330000     -32.69630000     -69.76590000
H      -40.86920000     -32.40710000     -71.59950000
C      -45.02050000     -31.69660000     -67.45510000
H      -44.68170000     -32.56100000     -66.92960000
H      -45.09070000     -30.89210000     -66.71340000
S      -41.61390000     -34.66520000     -70.83170000
S      -46.79570000     -32.05330000     -68.01990000
C      -42.88960000     -34.61120000     -72.16520000
H      -42.74370000     -33.68100000     -72.76950000
H      -42.57110000     -35.41200000     -72.83750000
C      -46.58930000     -33.05400000     -69.58430000
H      -47.16190000     -33.93730000     -69.51400000
H      -45.53090000     -33.26090000     -69.61720000
C      -46.94690000     -32.29890000     -70.88020000
H      -47.84210000     -31.78860000     -70.61230000
H      -46.17710000     -31.57490000     -71.11350000
C      -44.27200000     -34.72650000     -71.64060000
H      -44.44350000     -33.77530000     -71.07000000
H      -44.28800000     -35.55860000     -70.93900000
C      -45.32300000     -34.88450000     -72.68230000
C      -45.22720000     -35.87660000     -73.63980000
C      -46.70360000     -34.36220000     -72.68630000
H      -44.33720000     -36.45110000     -73.96200000
C      -47.43530000     -34.85290000     -73.74970000
C      -47.41350000     -33.28350000     -71.99200000
C      -48.70850000     -33.17150000     -72.50650000
S      -46.67180000     -36.17500000     -74.61820000
S      -49.12370000     -34.26940000     -73.79830000
H      -49.34340000     -32.31540000     -72.22540000
