40
Properties=species:S:1:pos:R:3 #=T CELL(abcABC):=T 1.889726e+02=T 90.00000=T Traj:=T positionsangstrom=T Step:=T 0=T Bead:=T pbc="F F F"
C      -44.46370000     -30.15270000     -69.46140000
C      -44.19890000     -31.25100000     -68.63570000
C      -43.17880000     -32.13540000     -69.01100000
C      -42.47860000     -31.80520000     -70.16290000
C      -42.73110000     -30.74840000     -71.05670000
C      -43.76480000     -29.89530000     -70.66990000
H      -45.35330000     -29.58310000     -69.27400000
H      -43.04840000     -33.10200000     -68.48280000
H      -42.08150000     -30.66450000     -71.89690000
H      -44.01890000     -28.96870000     -71.26340000
C      -41.36580000     -32.75110000     -70.66590000
H      -40.46140000     -32.61970000     -70.07930000
H      -41.02560000     -32.50190000     -71.63870000
C      -45.15560000     -31.58790000     -67.48180000
H      -44.80850000     -32.42630000     -66.89330000
H      -45.29880000     -30.72000000     -66.82910000
S      -41.73970000     -34.54670000     -70.67520000
S      -46.89670000     -32.03820000     -68.07580000
C      -42.82920000     -34.88730000     -72.11930000
H      -42.54630000     -34.27320000     -72.98130000
H      -42.62560000     -35.92490000     -72.28390000
C      -46.83990000     -33.27400000     -69.41270000
H      -47.70220000     -33.93490000     -69.34040000
H      -45.97980000     -33.99190000     -69.28040000
C      -46.79810000     -32.60590000     -70.76320000
H      -47.42060000     -31.66030000     -70.72810000
H      -45.79670000     -32.15660000     -70.93240000
C      -44.27230000     -34.59290000     -71.77370000
H      -44.40250000     -33.59060000     -71.45590000
H      -44.58390000     -35.13850000     -70.84960000
C      -45.31320000     -35.03330000     -72.75680000
C      -45.16410000     -35.99290000     -73.72190000
C      -46.68710000     -34.47000000     -72.75360000
H      -44.30640000     -36.65460000     -73.92550000
C      -47.41590000     -34.84500000     -73.87200000
C      -47.34210000     -33.51940000     -71.91810000
C      -48.62970000     -33.21520000     -72.40270000
S      -46.61320000     -36.14850000     -74.77120000
S      -49.02580000     -34.15670000     -73.86750000
H      -49.36070000     -32.56000000     -71.96020000
