40
Properties=species:S:1:pos:R:3 #=T CELL(abcABC):=T 1.889726e+02=T 90.00000=T Traj:=T positionsangstrom=T Step:=T 0=T Bead:=T pbc="F F F"
C      -44.40530000     -30.20180000     -69.27830000
C      -44.35950000     -31.41390000     -68.64500000
C      -43.40330000     -32.35530000     -69.14380000
C      -42.57300000     -32.00330000     -70.22740000
C      -42.70670000     -30.73130000     -70.83880000
C      -43.51450000     -29.83230000     -70.24830000
H      -45.02460000     -29.36060000     -68.92840000
H      -43.38540000     -33.30400000     -68.66970000
H      -42.11070000     -30.49850000     -71.67810000
H      -43.54040000     -28.81970000     -70.69550000
C      -41.51010000     -32.87250000     -70.75840000
H      -40.54030000     -32.64070000     -70.35570000
H      -41.39350000     -32.63580000     -71.82300000
C      -45.37050000     -31.90780000     -67.62950000
H      -45.05680000     -32.96810000     -67.35710000
H      -45.38580000     -31.25520000     -66.72060000
S      -41.64740000     -34.70060000     -70.56660000
S      -47.13120000     -31.86890000     -68.27010000
C      -43.11940000     -35.26100000     -71.45990000
H      -42.72310000     -35.75800000     -72.41010000
H      -43.64770000     -36.02760000     -70.90700000
C      -47.10230000     -33.10840000     -69.63640000
H      -47.93060000     -33.76410000     -69.48040000
H      -46.25110000     -33.83060000     -69.55030000
C      -47.03030000     -32.39260000     -70.99790000
H      -47.71030000     -31.56110000     -70.97550000
H      -46.04820000     -31.92130000     -71.17040000
C      -44.20050000     -34.15280000     -71.78290000
H      -43.73410000     -33.22540000     -72.06340000
H      -44.60080000     -33.93320000     -70.78320000
C      -45.16880000     -34.60710000     -72.81040000
C      -44.84820000     -35.54820000     -73.77490000
C      -46.57480000     -34.24010000     -72.83870000
H      -43.95670000     -36.01100000     -74.03300000
C      -47.27510000     -34.97440000     -73.81940000
C      -47.43620000     -33.29910000     -72.17190000
C      -48.76120000     -33.37140000     -72.46320000
S      -46.19460000     -35.92810000     -74.79470000
S      -48.97150000     -34.58160000     -73.81550000
H      -49.59580000     -32.77620000     -72.03250000
