40
Properties=species:S:1:pos:R:3 #=T CELL(abcABC):=T 1.889726e+02=T 90.00000=T Traj:=T positionsangstrom=T Step:=T 0=T Bead:=T pbc="F F F"
C      -44.36920000     -30.10860000     -69.30470000
C      -44.32180000     -31.35260000     -68.65350000
C      -43.33490000     -32.26150000     -69.06130000
C      -42.36400000     -31.94460000     -70.03720000
C      -42.45460000     -30.70410000     -70.64730000
C      -43.42260000     -29.78930000     -70.26710000
H      -44.98980000     -29.29790000     -69.09900000
H      -43.35250000     -33.21100000     -68.50400000
H      -41.67940000     -30.40000000     -71.42390000
H      -43.41190000     -28.87200000     -70.75690000
C      -41.40320000     -33.04480000     -70.53220000
H      -40.43370000     -32.83900000     -70.13370000
H      -41.33350000     -32.88080000     -71.60910000
C      -45.43110000     -31.77150000     -67.72420000
H      -45.26690000     -32.80960000     -67.38130000
H      -45.43590000     -31.06810000     -66.85030000
S      -41.89490000     -34.78410000     -70.13870000
S      -47.07110000     -31.65750000     -68.38890000
C      -43.18530000     -35.14170000     -71.43580000
H      -42.73360000     -35.73070000     -72.23220000
H      -43.84690000     -35.92210000     -70.95150000
C      -47.11400000     -33.01290000     -69.68670000
H      -48.10210000     -33.49810000     -69.64220000
H      -46.28910000     -33.65950000     -69.50090000
C      -47.08820000     -32.41630000     -71.06610000
H      -47.83470000     -31.56900000     -71.01070000
H      -46.08390000     -31.97250000     -71.25200000
C      -44.09030000     -33.97790000     -72.06230000
H      -43.41260000     -33.27880000     -72.57650000
H      -44.57590000     -33.39820000     -71.26660000
C      -45.16560000     -34.61410000     -72.93520000
C      -44.85510000     -35.49200000     -73.97340000
C      -46.57710000     -34.31790000     -72.88980000
H      -43.88130000     -35.80550000     -74.28700000
C      -47.24700000     -34.99620000     -73.88930000
C      -47.48970000     -33.45530000     -72.16000000
C      -48.77590000     -33.55260000     -72.56270000
S      -46.27220000     -36.02790000     -74.86690000
S      -48.96850000     -34.76190000     -73.88730000
H      -49.61960000     -33.04450000     -72.07730000
