40
Properties=species:S:1:pos:R:3 #=T CELL(abcABC):=T 1.889726e+02=T 90.00000=T Traj:=T positionsangstrom=T Step:=T 0=T Bead:=T pbc="F F F"
C      -44.48740000     -30.35120000     -69.96820000
C      -44.56360000     -31.21030000     -68.83620000
C      -43.58690000     -32.18190000     -68.68920000
C      -42.57710000     -32.34980000     -69.69930000
C      -42.55470000     -31.52000000     -70.80010000
C      -43.51230000     -30.52970000     -70.97150000
H      -45.32670000     -29.68530000     -70.08720000
H      -43.65220000     -32.79970000     -67.79150000
H      -41.92590000     -31.82200000     -71.62810000
H      -43.39630000     -29.86020000     -71.82720000
C      -41.47170000     -33.40890000     -69.43040000
H      -41.02510000     -33.42110000     -68.46980000
H      -40.73640000     -33.27460000     -70.23990000
C      -45.63170000     -31.30410000     -67.78850000
H      -45.59900000     -32.19750000     -67.15220000
H      -45.62290000     -30.51040000     -67.05900000
S      -42.27450000     -35.15630000     -69.61830000
S      -47.35460000     -31.24280000     -68.56250000
C      -43.00100000     -35.28480000     -71.26910000
H      -42.30450000     -35.18160000     -72.07850000
H      -43.23710000     -36.35020000     -71.50010000
C      -47.20800000     -32.60280000     -69.82470000
H      -48.23450000     -32.98730000     -69.86390000
H      -46.52230000     -33.31770000     -69.52210000
C      -46.80220000     -32.22350000     -71.26810000
H      -47.26660000     -31.31850000     -71.56190000
H      -45.69000000     -32.06560000     -71.27690000
C      -44.23930000     -34.45550000     -71.51320000
H      -43.93970000     -33.48880000     -71.79610000
H      -44.77320000     -34.39230000     -70.55510000
C      -45.14150000     -34.96650000     -72.65580000
C      -44.83350000     -35.92870000     -73.61810000
C      -46.41250000     -34.31350000     -72.91950000
H      -43.92730000     -36.52830000     -73.79370000
C      -46.97510000     -34.76990000     -74.11440000
C      -47.17470000     -33.17690000     -72.35670000
C      -48.34540000     -32.97380000     -72.98140000
S      -46.05740000     -36.06470000     -74.81880000
S      -48.58350000     -34.10050000     -74.40130000
H      -49.12390000     -32.23330000     -72.75840000
