40
Properties=species:S:1:pos:R:3 #=T CELL(abcABC):=T 1.889726e+02=T 90.00000=T Traj:=T positionsangstrom=T Step:=T 0=T Bead:=T pbc="F F F"
C      -44.52190000     -30.57130000     -69.87290000
C      -44.53070000     -31.39230000     -68.73530000
C      -43.50780000     -32.36790000     -68.63520000
C      -42.47560000     -32.45700000     -69.63550000
C      -42.54480000     -31.65650000     -70.81370000
C      -43.55080000     -30.69230000     -70.85310000
H      -45.31370000     -29.80000000     -69.99190000
H      -43.46410000     -33.02290000     -67.83770000
H      -41.81560000     -31.68100000     -71.58180000
H      -43.68050000     -29.93680000     -71.70260000
C      -41.47980000     -33.55570000     -69.75540000
H      -40.79380000     -33.46980000     -68.91110000
H      -40.83350000     -33.45340000     -70.66140000
C      -45.75010000     -31.32250000     -67.80690000
H      -45.84780000     -32.19760000     -67.12060000
H      -45.59390000     -30.37980000     -67.23920000
S      -42.11460000     -35.26100000     -69.59380000
S      -47.37770000     -31.16020000     -68.65000000
C      -43.08260000     -35.44010000     -71.14570000
H      -42.41810000     -35.16180000     -71.97190000
H      -43.48930000     -36.45360000     -71.25570000
C      -47.48490000     -32.47420000     -70.00130000
H      -48.55410000     -32.78730000     -70.09040000
H      -47.05870000     -33.52530000     -69.77420000
C      -47.03530000     -32.03030000     -71.36140000
H      -47.50860000     -31.07390000     -71.67660000
H      -45.92910000     -31.89340000     -71.35540000
C      -44.32750000     -34.43770000     -71.25500000
H      -44.08160000     -33.29590000     -71.31810000
H      -45.00690000     -34.49240000     -70.39770000
C      -45.12970000     -34.80380000     -72.52110000
C      -44.68790000     -35.70170000     -73.46100000
C      -46.44510000     -34.13430000     -72.89190000
H      -43.82330000     -36.44940000     -73.42520000
C      -46.96960000     -34.71980000     -74.02600000
C      -47.32000000     -33.03390000     -72.45260000
C      -48.42100000     -33.00120000     -73.21560000
S      -45.91930000     -35.92990000     -74.74020000
S      -48.51140000     -34.12380000     -74.49930000
H      -49.23710000     -32.34030000     -73.18830000
