40
Properties=species:S:1:pos:R:3 #=T CELL(abcABC):=T 1.889726e+02=T 90.00000=T Traj:=T positionsangstrom=T Step:=T 0=T Bead:=T pbc="F F F"
C      -44.34350000     -34.55990000     -75.51480000
C      -45.21640000     -33.56360000     -75.09360000
C      -46.33660000     -33.95760000     -74.33430000
C      -46.62250000     -35.34390000     -74.16170000
C      -45.76740000     -36.29400000     -74.66830000
C      -44.61700000     -35.89850000     -75.34930000
H      -43.38980000     -34.14460000     -76.01230000
H      -47.04220000     -33.20430000     -74.00090000
H      -45.90110000     -37.32310000     -74.76430000
H      -43.98270000     -36.65860000     -75.85360000
C      -47.87860000     -35.85560000     -73.49350000
H      -47.96670000     -36.91400000     -73.54600000
H      -48.74020000     -35.57850000     -74.02400000
C      -44.82200000     -32.14570000     -75.36450000
H      -43.82020000     -32.13340000     -75.72540000
H      -45.44600000     -31.69460000     -76.09400000
S      -48.28080000     -35.28890000     -71.74130000
S      -45.04350000     -31.16530000     -73.90810000
C      -46.72850000     -34.94980000     -70.84100000
H      -46.53550000     -35.61820000     -70.07870000
H      -45.92060000     -34.80820000     -71.53850000
C      -44.19060000     -31.87510000     -72.47120000
H      -43.06420000     -31.90710000     -72.49000000
H      -44.56850000     -32.95730000     -72.39380000
C      -44.57810000     -31.08580000     -71.24940000
H      -44.03750000     -30.19150000     -71.27760000
H      -45.66620000     -31.00830000     -71.29870000
C      -46.90610000     -33.58030000     -70.17350000
H      -47.91940000     -33.52850000     -69.85240000
H      -46.82130000     -32.78420000     -70.89840000
C      -45.99110000     -33.29590000     -69.03610000
C      -46.20350000     -33.93670000     -67.81200000
C      -44.73510000     -32.59540000     -68.98170000
H      -47.05600000     -34.57450000     -67.65030000
C      -44.08500000     -32.70570000     -67.74770000
C      -44.12400000     -31.65130000     -69.86450000
C      -42.93460000     -31.21070000     -69.33380000
S      -44.95580000     -33.71530000     -66.60230000
S      -42.59880000     -31.84680000     -67.66030000
H      -42.20380000     -30.56990000     -69.68470000
