40
Properties=species:S:1:pos:R:3 #=T CELL(abcABC):=T 1.889726e+02=T 90.00000=T Traj:=T positionsangstrom=T Step:=T 0=T Bead:=T pbc="F F F"
C      -43.77740000     -34.66110000     -74.23630000
C      -44.88920000     -33.95770000     -74.77900000
C      -46.24280000     -34.44060000     -74.63240000
C      -46.36350000     -35.69520000     -73.98160000
C      -45.23890000     -36.46730000     -73.59250000
C      -43.93920000     -35.94680000     -73.73070000
H      -42.82150000     -34.18800000     -74.14000000
H      -47.18400000     -33.99680000     -74.88700000
H      -45.37080000     -37.44030000     -73.12260000
H      -43.02550000     -36.49700000     -73.41140000
C      -47.74260000     -36.09620000     -73.40110000
H      -47.64450000     -37.10980000     -72.98840000
H      -48.57800000     -36.20190000     -74.14090000
C      -44.67030000     -32.55950000     -75.23200000
H      -43.55480000     -32.42430000     -75.43550000
H      -45.13920000     -32.23870000     -76.18060000
S      -48.36900000     -34.88110000     -72.13930000
S      -45.17760000     -31.25090000     -74.07440000
C      -47.05210000     -34.91440000     -71.00000000
H      -47.21000000     -35.81430000     -70.36550000
H      -46.00330000     -34.95640000     -71.47550000
C      -44.70790000     -31.91000000     -72.46770000
H      -43.64180000     -32.04990000     -72.30740000
H      -45.07750000     -32.89560000     -72.26720000
C      -45.23910000     -30.94850000     -71.36500000
H      -44.85690000     -29.91790000     -71.54000000
H      -46.31130000     -30.90520000     -71.39250000
C      -47.06160000     -33.61050000     -70.19140000
H      -48.07120000     -33.45640000     -69.80360000
H      -46.96740000     -32.78390000     -70.88630000
C      -45.92450000     -33.52620000     -69.15580000
C      -45.85570000     -34.34680000     -68.05840000
C      -44.95920000     -32.45960000     -69.13430000
H      -46.35880000     -35.22840000     -67.77600000
C      -44.19010000     -32.47770000     -67.98950000
C      -44.60440000     -31.37540000     -70.02090000
C      -43.53020000     -30.68680000     -69.51330000
S      -44.42480000     -33.95770000     -67.05170000
S      -42.91230000     -31.26520000     -67.93290000
H      -43.20470000     -29.77020000     -69.99430000
