40
Properties=species:S:1:pos:R:3 #=T CELL(abcABC):=T 1.889726e+02=T 90.00000=T Traj:=T positionsangstrom=T Step:=T 0=T Bead:=T pbc="F F F"
C      -43.60050000     -34.88190000     -74.40400000
C      -44.66270000     -33.97630000     -74.64290000
C      -46.00770000     -34.41780000     -74.38430000
C      -46.19580000     -35.61720000     -73.76440000
C      -45.12500000     -36.48910000     -73.35500000
C      -43.84900000     -36.07130000     -73.69100000
H      -42.52490000     -34.73580000     -74.78840000
H      -46.86910000     -33.78710000     -74.56390000
H      -45.26620000     -37.33620000     -72.66130000
H      -43.11690000     -36.85630000     -73.47120000
C      -47.70470000     -36.02760000     -73.49940000
H      -47.65290000     -37.08860000     -73.20610000
H      -48.34380000     -35.79800000     -74.35740000
C      -44.43250000     -32.66180000     -75.14980000
H      -43.37240000     -32.49930000     -75.03910000
H      -44.71690000     -32.51000000     -76.15860000
S      -48.48040000     -34.91770000     -72.21790000
S      -45.38110000     -31.30710000     -74.07750000
C      -47.15990000     -34.69980000     -70.93570000
H      -47.26780000     -35.60950000     -70.36880000
H      -46.18710000     -34.72140000     -71.36150000
C      -45.07880000     -32.02680000     -72.43510000
H      -44.04490000     -32.37220000     -72.31900000
H      -45.74580000     -32.92680000     -72.35220000
C      -45.38380000     -30.97440000     -71.40150000
H      -45.01570000     -29.95600000     -71.71240000
H      -46.48850000     -30.97210000     -71.16290000
C      -47.35900000     -33.55410000     -69.97930000
H      -48.11080000     -33.70800000     -69.19100000
H      -47.52740000     -32.65750000     -70.57960000
C      -46.03070000     -33.45520000     -69.16050000
C      -45.86370000     -34.25230000     -68.05580000
C      -44.98000000     -32.42380000     -69.23330000
H      -46.39650000     -35.14360000     -67.84430000
C      -44.04090000     -32.47420000     -68.13860000
C      -44.63340000     -31.27490000     -70.07540000
C      -43.61300000     -30.52750000     -69.46350000
S      -44.32990000     -33.92630000     -67.11970000
S      -42.76990000     -31.28900000     -68.07870000
H      -43.09570000     -29.75510000     -70.06890000
