40
Properties=species:S:1:pos:R:3 #=T CELL(abcABC):=T 1.889726e+02=T 90.00000=T Traj:=T positionsangstrom=T Step:=T 0=T Bead:=T pbc="F F F"
C      -48.95010000     -35.24940000     -70.91590000
C      -47.76560000     -35.99420000     -71.14810000
C      -47.09530000     -35.71420000     -72.40510000
C      -47.60450000     -34.71510000     -73.24290000
C      -48.65100000     -33.87980000     -72.83690000
C      -49.31220000     -34.17250000     -71.68910000
H      -49.59320000     -35.51530000     -70.10190000
H      -46.19350000     -36.24330000     -72.65750000
H      -49.09330000     -33.17600000     -73.53410000
H      -50.12660000     -33.51790000     -71.39520000
C      -46.89030000     -34.45230000     -74.56170000
H      -47.41680000     -34.73970000     -75.42900000
H      -46.00790000     -35.18180000     -74.71200000
C      -47.11280000     -36.87910000     -70.06790000
H      -47.28940000     -36.38730000     -69.03670000
H      -47.59830000     -37.85190000     -70.10460000
S      -46.23420000     -32.74510000     -74.89080000
S      -45.34270000     -37.24210000     -70.35270000
C      -45.02990000     -32.31110000     -73.59520000
H      -44.24780000     -33.08780000     -73.35930000
H      -44.41960000     -31.48100000     -73.93400000
C      -44.66840000     -35.59550000     -69.53570000
H      -43.83780000     -35.90650000     -68.88380000
H      -45.56790000     -35.25150000     -68.88680000
C      -44.39840000     -34.56380000     -70.67460000
H      -43.72970000     -35.01760000     -71.46130000
H      -45.38080000     -34.39550000     -71.13530000
C      -45.73130000     -31.76660000     -72.33470000
H      -46.34530000     -32.48260000     -71.73020000
H      -46.36960000     -30.91360000     -72.59150000
C      -44.76660000     -31.17830000     -71.39210000
C      -44.60180000     -29.81590000     -71.30890000
C      -43.78770000     -31.89300000     -70.65150000
H      -45.00720000     -29.16810000     -72.05940000
C      -43.02650000     -31.02200000     -69.88190000
C      -43.68120000     -33.32300000     -70.18930000
C      -42.74600000     -33.40810000     -69.10630000
S      -43.37820000     -29.34120000     -70.23880000
S      -41.94230000     -31.87030000     -68.71450000
H      -42.46770000     -34.27370000     -68.45930000
