40
Properties=species:S:1:pos:R:3 #=T CELL(abcABC):=T 1.889726e+02=T 90.00000=T Traj:=T positionsangstrom=T Step:=T 0=T Bead:=T pbc="F F F"
C      -44.87120000     -30.61840000     -68.88530000
C      -44.81530000     -31.96230000     -68.34750000
C      -43.82380000     -32.78860000     -68.75040000
C      -42.66340000     -32.26740000     -69.44530000
C      -42.73830000     -30.95360000     -69.92630000
C      -43.86930000     -30.10360000     -69.65010000
H      -45.80370000     -30.05880000     -68.61230000
H      -43.76590000     -33.83480000     -68.57980000
H      -41.95800000     -30.55780000     -70.60630000
H      -43.78140000     -29.22330000     -70.33060000
C      -41.49380000     -33.18410000     -69.83280000
H      -40.84490000     -33.21830000     -69.00820000
H      -40.91820000     -32.80880000     -70.70190000
C      -46.02870000     -32.47910000     -67.59210000
H      -45.90350000     -33.56210000     -67.43670000
H      -46.12860000     -32.02580000     -66.54960000
S      -41.82240000     -35.00290000     -70.18640000
S      -47.65160000     -32.07040000     -68.45510000
C      -42.81910000     -34.76010000     -71.87530000
H      -42.67470000     -33.75240000     -72.40910000
H      -42.37960000     -35.52600000     -72.53660000
C      -47.52360000     -32.85730000     -70.12890000
H      -48.53140000     -32.68770000     -70.47300000
H      -47.40390000     -33.89010000     -70.11730000
C      -46.64080000     -32.17250000     -71.15700000
H      -46.82480000     -31.05110000     -71.24590000
H      -45.58210000     -32.26370000     -70.90160000
C      -44.28480000     -35.02010000     -71.54450000
H      -44.63250000     -34.23400000     -70.81200000
H      -44.45780000     -35.97030000     -71.02760000
C      -45.22810000     -35.06380000     -72.70520000
C      -45.12200000     -36.11600000     -73.55050000
C      -46.21460000     -34.03670000     -72.98180000
H      -44.44250000     -36.90980000     -73.61860000
C      -46.80230000     -34.37160000     -74.23700000
C      -46.88040000     -32.86060000     -72.44410000
C      -47.86430000     -32.40350000     -73.24460000
S      -46.14920000     -35.87990000     -74.96800000
S      -48.14260000     -33.38530000     -74.72240000
H      -48.42890000     -31.47430000     -73.04690000
