40
Properties=species:S:1:pos:R:3 #=T CELL(abcABC):=T 1.889726e+02=T 90.00000=T Traj:=T positionsangstrom=T Step:=T 0=T Bead:=T pbc="F F F"
C      -44.64890000     -30.60630000     -68.71330000
C      -44.73340000     -31.89730000     -68.34380000
C      -43.72220000     -32.83540000     -68.82280000
C      -42.66290000     -32.36350000     -69.59780000
C      -42.72530000     -31.04830000     -70.13630000
C      -43.73250000     -30.18640000     -69.71550000
H      -45.48020000     -29.88290000     -68.43510000
H      -43.65900000     -33.91550000     -68.57990000
H      -41.87460000     -30.78250000     -70.80120000
H      -43.55830000     -29.18650000     -70.11270000
C      -41.48050000     -33.21970000     -69.86470000
H      -40.74350000     -33.15310000     -69.05280000
H      -40.95650000     -32.79610000     -70.74590000
C      -45.92590000     -32.45390000     -67.56340000
H      -45.92440000     -33.53980000     -67.34280000
H      -45.91510000     -31.97670000     -66.62210000
S      -41.80770000     -34.97720000     -70.37660000
S      -47.57370000     -32.05400000     -68.37340000
C      -43.08060000     -34.70310000     -71.66980000
H      -42.98550000     -33.69030000     -72.05540000
H      -42.87980000     -35.48390000     -72.41750000
C      -47.51770000     -33.12740000     -69.87400000
H      -48.61870000     -33.27990000     -70.12500000
H      -47.06610000     -34.07720000     -69.62660000
C      -46.79130000     -32.40750000     -71.06760000
H      -47.03250000     -31.32600000     -71.04420000
H      -45.71370000     -32.43550000     -70.85320000
C      -44.55500000     -34.91460000     -71.27320000
H      -44.73170000     -33.95500000     -70.77910000
H      -44.73950000     -35.61650000     -70.51530000
C      -45.37230000     -34.97820000     -72.59130000
C      -45.02190000     -35.87770000     -73.54860000
C      -46.46630000     -34.13470000     -73.04890000
H      -44.35220000     -36.69000000     -73.57060000
C      -46.81580000     -34.37380000     -74.35050000
C      -47.11120000     -32.95690000     -72.43680000
C      -47.97470000     -32.39450000     -73.31290000
S      -46.03810000     -35.78870000     -74.96480000
S      -48.08630000     -33.33470000     -74.82380000
H      -48.70250000     -31.63190000     -73.13350000
