40
Properties=species:S:1:pos:R:3 #=T CELL(abcABC):=T 1.889726e+02=T 90.00000=T Traj:=T positionsangstrom=T Step:=T 0=T Bead:=T pbc="F F F"
C      -44.68390000     -30.54050000     -69.05360000
C      -44.74210000     -31.80500000     -68.52510000
C      -43.61640000     -32.68940000     -68.64300000
C      -42.56300000     -32.30640000     -69.50430000
C      -42.46650000     -30.96700000     -69.97400000
C      -43.59580000     -30.09240000     -69.75150000
H      -45.48030000     -29.82260000     -68.87960000
H      -43.49940000     -33.68660000     -68.14540000
H      -41.58780000     -30.74220000     -70.52890000
H      -43.56450000     -29.04810000     -70.07180000
C      -41.39040000     -33.23010000     -69.83240000
H      -40.77820000     -33.42410000     -68.88200000
H      -40.73830000     -32.75100000     -70.52480000
C      -45.81920000     -32.22480000     -67.53610000
H      -45.74070000     -33.27430000     -67.26160000
H      -45.79480000     -31.61880000     -66.59680000
S      -41.90000000     -34.90170000     -70.35880000
S      -47.46930000     -32.12240000     -68.26640000
C      -43.13840000     -34.66560000     -71.73080000
H      -43.02670000     -33.72650000     -72.19960000
H      -42.68580000     -35.30960000     -72.50320000
C      -47.42610000     -33.21220000     -69.81850000
H      -48.37150000     -33.70450000     -69.80140000
H      -46.67770000     -34.03080000     -69.69970000
C      -47.09300000     -32.38460000     -71.11170000
H      -47.65950000     -31.45890000     -71.18860000
H      -46.04160000     -32.07260000     -71.07760000
C      -44.52640000     -35.11050000     -71.33470000
H      -45.05550000     -34.53980000     -70.54390000
H      -44.40990000     -36.18570000     -70.91720000
C      -45.45760000     -35.11380000     -72.56420000
C      -45.13080000     -35.96750000     -73.56770000
C      -46.50180000     -34.17910000     -72.94530000
H      -44.33110000     -36.69320000     -73.45420000
C      -46.91060000     -34.45480000     -74.24310000
C      -47.26810000     -33.04250000     -72.39110000
C      -48.16270000     -32.57140000     -73.32490000
S      -45.99390000     -35.71700000     -75.10410000
S      -48.10620000     -33.37190000     -74.85100000
H      -48.81050000     -31.72020000     -73.15800000
