40
Properties=species:S:1:pos:R:3 #=T CELL(abcABC):=T 1.889726e+02=T 90.00000=T Traj:=T positionsangstrom=T Step:=T 0=T Bead:=T pbc="F F F"
C      -44.61510000     -30.45040000     -69.13950000
C      -44.63120000     -31.74650000     -68.52740000
C      -43.57130000     -32.61890000     -68.72910000
C      -42.45560000     -32.19990000     -69.52000000
C      -42.40570000     -30.91880000     -70.09650000
C      -43.51900000     -30.00080000     -69.81720000
H      -45.35890000     -29.76910000     -69.00390000
H      -43.67720000     -33.62240000     -68.33560000
H      -41.56130000     -30.66620000     -70.63580000
H      -43.62530000     -29.02410000     -70.27910000
C      -41.35990000     -33.16140000     -69.80590000
H      -40.76850000     -33.32680000     -68.92980000
H      -40.70020000     -32.76370000     -70.58570000
C      -45.67460000     -32.16070000     -67.57370000
H      -45.37380000     -33.04570000     -67.02230000
H      -45.81130000     -31.39700000     -66.72490000
S      -42.00350000     -34.87390000     -70.15840000
S      -47.44110000     -32.18050000     -68.21740000
C      -43.17310000     -34.47390000     -71.65570000
H      -43.34750000     -33.38000000     -71.69690000
H      -42.77860000     -34.86500000     -72.64540000
C      -47.28910000     -33.28470000     -69.72370000
H      -48.25230000     -33.80630000     -69.89470000
H      -46.45160000     -33.98030000     -69.55510000
C      -47.10460000     -32.46450000     -71.04370000
H      -47.88310000     -31.68970000     -71.06950000
H      -46.16030000     -31.88650000     -71.00080000
C      -44.55330000     -35.12880000     -71.37910000
H      -45.01950000     -34.57730000     -70.63830000
H      -44.38990000     -36.15870000     -71.08210000
C      -45.39380000     -35.06800000     -72.69710000
C      -45.13230000     -35.99720000     -73.68010000
C      -46.37150000     -34.11810000     -73.11150000
H      -44.34670000     -36.72730000     -73.47880000
C      -46.91260000     -34.43790000     -74.36850000
C      -47.24400000     -33.21650000     -72.37870000
C      -48.30330000     -32.73950000     -73.19290000
S      -46.10720000     -35.77350000     -75.17910000
S      -48.20090000     -33.45840000     -74.80130000
H      -49.06030000     -32.03190000     -72.97480000
