40
Properties=species:S:1:pos:R:3 #=T CELL(abcABC):=T 1.889726e+02=T 90.00000=T Traj:=T positionsangstrom=T Step:=T 0=T Bead:=T pbc="F F F"
C      -44.45290000     -30.28120000     -68.94130000
C      -44.53960000     -31.57440000     -68.42050000
C      -43.52380000     -32.46290000     -68.64050000
C      -42.48710000     -32.15670000     -69.52110000
C      -42.53450000     -30.93240000     -70.30240000
C      -43.49110000     -29.99930000     -69.94110000
H      -45.18570000     -29.53260000     -68.74460000
H      -43.52270000     -33.40880000     -68.17780000
H      -41.86100000     -30.80680000     -71.11300000
H      -43.58530000     -29.05250000     -70.37940000
C      -41.37000000     -33.14560000     -69.72700000
H      -40.81890000     -33.30230000     -68.81220000
H      -40.65800000     -32.77440000     -70.49960000
C      -45.73550000     -32.11420000     -67.57360000
H      -45.48550000     -33.09110000     -67.10550000
H      -45.90830000     -31.42620000     -66.80240000
S      -42.02780000     -34.80340000     -70.20270000
S      -47.38130000     -32.25590000     -68.39300000
C      -43.15140000     -34.47400000     -71.52990000
H      -43.14370000     -33.38100000     -71.61360000
H      -42.79160000     -34.88540000     -72.46620000
C      -47.32060000     -33.25990000     -69.92680000
H      -48.37540000     -33.54660000     -70.07590000
H      -46.79510000     -34.20170000     -69.72200000
C      -46.75250000     -32.55590000     -71.14560000
H      -46.95280000     -31.49400000     -71.10170000
H      -45.65600000     -32.60100000     -71.11880000
C      -44.55760000     -35.05310000     -71.34290000
H      -45.11140000     -34.68790000     -70.46050000
H      -44.42410000     -36.12140000     -71.09590000
C      -45.35630000     -35.04220000     -72.64650000
C      -45.02780000     -35.81910000     -73.77360000
C      -46.54380000     -34.30200000     -73.03510000
H      -44.26950000     -36.57370000     -73.59750000
C      -47.11690000     -34.65780000     -74.25970000
C      -47.22260000     -33.21970000     -72.39410000
C      -48.20570000     -32.69600000     -73.23970000
S      -46.07870000     -35.79120000     -75.08850000
S      -48.41910000     -33.59690000     -74.69400000
H      -48.93110000     -31.94670000     -72.90480000
