40
Properties=species:S:1:pos:R:3 #=T CELL(abcABC):=T 1.889726e+02=T 90.00000=T Traj:=T positionsangstrom=T Step:=T 0=T Bead:=T pbc="F F F"
C      -44.03660000     -34.80080000     -74.49100000
C      -45.23250000     -34.10200000     -74.81110000
C      -46.41620000     -34.70420000     -74.34830000
C      -46.47870000     -35.95370000     -73.64740000
C      -45.25010000     -36.55390000     -73.36600000
C      -44.06430000     -36.00980000     -73.83940000
H      -43.02930000     -34.36860000     -74.63850000
H      -47.30890000     -34.12700000     -74.65260000
H      -45.15590000     -37.49940000     -72.79280000
H      -43.06080000     -36.31330000     -73.66080000
C      -47.79400000     -36.45830000     -73.05290000
H      -47.61060000     -37.39380000     -72.54830000
H      -48.58050000     -36.54810000     -73.85270000
C      -45.27390000     -32.74290000     -75.51500000
H      -44.62120000     -32.65720000     -76.32370000
H      -46.29070000     -32.60450000     -75.78950000
S      -48.38750000     -35.16390000     -71.75400000
S      -45.00540000     -31.27150000     -74.46430000
C      -46.97400000     -35.34510000     -70.46310000
H      -47.51740000     -35.42810000     -69.51360000
H      -46.58000000     -36.32600000     -70.64890000
C      -44.20260000     -31.70290000     -72.86160000
H      -43.19480000     -31.21580000     -72.88420000
H      -44.05060000     -32.79090000     -72.74800000
C      -44.91710000     -31.03960000     -71.65360000
H      -45.06240000     -29.95130000     -71.87440000
H      -45.98170000     -31.52920000     -71.59270000
C      -45.99960000     -34.16250000     -70.72480000
H      -46.52180000     -33.33190000     -71.18650000
H      -45.08210000     -34.38410000     -71.32200000
C      -45.42820000     -33.65360000     -69.32780000
C      -45.40880000     -34.37500000     -68.18410000
C      -44.77190000     -32.39940000     -69.26560000
H      -45.98300000     -35.21570000     -67.82470000
C      -44.32840000     -32.19440000     -67.94010000
C      -44.31210000     -31.29670000     -70.22140000
C      -43.64090000     -30.32220000     -69.50410000
S      -44.68090000     -33.45370000     -66.84920000
S      -43.42800000     -30.71100000     -67.79940000
H      -43.11260000     -29.50940000     -70.04240000
