40
Properties=species:S:1:pos:R:3 #=T CELL(abcABC):=T 1.889726e+02=T 90.00000=T Traj:=T positionsangstrom=T Step:=T 0=T Bead:=T pbc="F F F"
C      -43.82480000     -35.08420000     -74.58870000
C      -44.88110000     -34.09310000     -74.69460000
C      -46.20860000     -34.51480000     -74.26330000
C      -46.44700000     -35.75580000     -73.52100000
C      -45.34390000     -36.61880000     -73.51410000
C      -44.05060000     -36.33420000     -73.97970000
H      -42.77850000     -34.91010000     -74.83470000
H      -47.13340000     -33.99260000     -74.43940000
H      -45.51600000     -37.60950000     -73.12840000
H      -43.31030000     -37.11170000     -73.71190000
C      -47.83300000     -36.22610000     -73.08570000
H      -47.90620000     -37.33280000     -72.90840000
H      -48.47940000     -36.12680000     -73.94080000
C      -44.73430000     -32.83610000     -75.47640000
H      -43.78720000     -32.82640000     -75.97600000
H      -45.45430000     -32.57420000     -76.21870000
S      -48.69420000     -35.45380000     -71.60510000
S      -44.65980000     -31.38300000     -74.27400000
C      -47.50720000     -35.15770000     -70.25900000
H      -48.17790000     -34.71230000     -69.54700000
H      -47.00630000     -36.04930000     -69.83100000
C      -44.26440000     -31.98340000     -72.49590000
H      -43.16560000     -31.72710000     -72.29750000
H      -44.34510000     -33.07210000     -72.19940000
C      -45.17010000     -31.05670000     -71.63110000
H      -44.96730000     -29.98150000     -71.99840000
H      -46.21920000     -31.34230000     -71.70380000
C      -46.28330000     -34.24270000     -70.63870000
H      -46.49140000     -33.49240000     -71.40700000
H      -45.49710000     -34.78210000     -71.09800000
C      -45.58610000     -33.58710000     -69.36180000
C      -45.42800000     -34.27440000     -68.21810000
C      -44.84420000     -32.27440000     -69.37090000
H      -45.79410000     -35.30300000     -68.05330000
C      -44.23140000     -32.09510000     -68.12330000
C      -44.72260000     -31.10700000     -70.23480000
C      -43.94210000     -30.12290000     -69.66160000
S      -44.45610000     -33.37010000     -67.00270000
S      -43.37100000     -30.53320000     -68.03860000
H      -43.70380000     -29.18760000     -70.07970000
