40
Properties=species:S:1:pos:R:3 #=T CELL(abcABC):=T 1.889726e+02=T 90.00000=T Traj:=T positionsangstrom=T Step:=T 0=T Bead:=T pbc="F F F"
C      -42.97940000     -33.68730000     -67.92730000
C      -43.71310000     -32.59850000     -68.34510000
C      -43.36050000     -32.00850000     -69.58540000
C      -42.37540000     -32.51040000     -70.43390000
C      -41.71630000     -33.69190000     -69.99930000
C      -41.97690000     -34.25780000     -68.73320000
H      -43.13560000     -34.19630000     -66.98910000
H      -43.99820000     -31.18670000     -69.93070000
H      -40.93140000     -34.14200000     -70.63380000
H      -41.37910000     -35.00510000     -68.43260000
C      -42.04490000     -31.81260000     -71.74710000
H      -41.00760000     -31.67560000     -71.75820000
H      -42.36220000     -30.79860000     -71.89160000
C      -44.80550000     -31.99000000     -67.48920000
H      -45.29930000     -32.85580000     -66.87390000
H      -44.44160000     -31.26340000     -66.76030000
S      -42.53330000     -32.88210000     -73.21530000
S      -46.15350000     -31.21090000     -68.47470000
C      -44.00440000     -31.93250000     -73.70050000
H      -43.65040000     -30.82290000     -73.71650000
H      -44.27560000     -32.09570000     -74.77310000
C      -46.55960000     -32.58730000     -69.60530000
H      -47.05850000     -33.37840000     -69.00310000
H      -45.73370000     -33.04530000     -70.07850000
C      -47.62080000     -32.21710000     -70.68210000
H      -48.55690000     -31.89090000     -70.16280000
H      -47.29320000     -31.28730000     -71.27160000
C      -45.27160000     -32.13630000     -72.91350000
H      -45.95120000     -31.29560000     -73.09810000
H      -45.04040000     -32.11260000     -71.80540000
C      -45.86770000     -33.49400000     -73.18300000
C      -45.47060000     -34.37510000     -74.22180000
C      -46.96300000     -34.04960000     -72.44080000
H      -44.66980000     -34.28400000     -74.88690000
C      -47.36450000     -35.29290000     -72.88970000
C      -47.93800000     -33.47030000     -71.51290000
C      -48.99080000     -34.28350000     -71.24250000
S      -46.52210000     -35.79490000     -74.30790000
S      -48.80320000     -35.80570000     -72.05910000
H      -49.71470000     -33.91150000     -70.47740000
