40
Properties=species:S:1:pos:R:3 #=T CELL(abcABC):=T 1.889726e+02=T 90.00000=T Traj:=T positionsangstrom=T Step:=T 0=T Bead:=T pbc="F F F"
C      -43.74780000     -35.39080000     -73.71530000
C      -44.79090000     -34.61700000     -74.38240000
C      -46.14680000     -34.96420000     -74.23490000
C      -46.53530000     -36.00550000     -73.40230000
C      -45.50870000     -36.76800000     -72.80530000
C      -44.13560000     -36.49310000     -72.95280000
H      -42.73570000     -35.08150000     -73.88450000
H      -46.87630000     -34.32530000     -74.70530000
H      -45.73770000     -37.60680000     -72.23370000
H      -43.36940000     -37.11180000     -72.47270000
C      -47.95980000     -36.22840000     -73.01640000
H      -48.08840000     -37.31520000     -72.74560000
H      -48.63880000     -36.08140000     -73.81250000
C      -44.35690000     -33.35950000     -75.18220000
H      -43.36930000     -33.00380000     -75.08250000
H      -44.65220000     -33.39580000     -76.22750000
S      -48.66110000     -35.24510000     -71.69990000
S      -45.15070000     -31.79540000     -74.45890000
C      -47.38970000     -35.04880000     -70.36970000
H      -47.92480000     -35.07880000     -69.39090000
H      -46.69850000     -35.90350000     -70.41270000
C      -44.29550000     -31.59300000     -72.87470000
H      -43.44350000     -30.90680000     -72.95940000
H      -43.96700000     -32.61210000     -72.58450000
C      -45.27760000     -30.98780000     -71.81040000
H      -45.42260000     -29.95170000     -72.15510000
H      -46.25300000     -31.44940000     -71.80370000
C      -46.66120000     -33.73590000     -70.52550000
H      -47.43690000     -32.99250000     -70.51780000
H      -46.25720000     -33.53110000     -71.53850000
C      -45.62360000     -33.37730000     -69.45250000
C      -45.39240000     -34.03880000     -68.29780000
C      -44.82770000     -32.13530000     -69.49990000
H      -45.82120000     -34.99580000     -68.07450000
C      -44.08660000     -31.88310000     -68.38150000
C      -44.67750000     -30.99530000     -70.43190000
C      -43.76420000     -29.97460000     -69.97780000
S      -44.23690000     -33.31940000     -67.18220000
S      -43.15890000     -30.34780000     -68.32580000
H      -43.68900000     -29.05520000     -70.53470000
