40
Properties=species:S:1:pos:R:3 #=T CELL(abcABC):=T 1.889726e+02=T 90.00000=T Traj:=T positionsangstrom=T Step:=T 0=T Bead:=T pbc="F F F"
C      -43.81190000     -35.31390000     -73.33470000
C      -44.91470000     -34.83380000     -74.09500000
C      -46.17160000     -35.37220000     -73.78680000
C      -46.41260000     -36.39110000     -72.78290000
C      -45.33550000     -36.71590000     -71.99200000
C      -44.01640000     -36.22810000     -72.29420000
H      -42.78860000     -34.98580000     -73.47110000
H      -47.13400000     -34.97000000     -74.16460000
H      -45.49830000     -37.33910000     -71.17490000
H      -43.24750000     -36.60300000     -71.64400000
C      -47.85980000     -36.72140000     -72.49610000
H      -47.90860000     -37.52820000     -71.72950000
H      -48.28890000     -37.09180000     -73.46400000
C      -44.74390000     -33.71490000     -75.07460000
H      -43.67100000     -33.63720000     -75.30290000
H      -45.40160000     -33.77390000     -75.91490000
S      -48.70200000     -35.24730000     -71.84120000
S      -45.48440000     -32.20190000     -74.48590000
C      -47.55470000     -34.56820000     -70.57930000
H      -48.17480000     -34.19530000     -69.69780000
H      -46.96790000     -35.41040000     -70.19880000
C      -44.28730000     -31.68490000     -73.12060000
H      -43.51410000     -31.09220000     -73.61280000
H      -43.88630000     -32.58040000     -72.56910000
C      -44.96930000     -30.73500000     -72.04710000
H      -44.72210000     -29.66360000     -72.37670000
H      -46.07070000     -30.87290000     -72.07130000
C      -46.48350000     -33.49850000     -70.89060000
H      -46.95460000     -32.60820000     -71.32720000
H      -45.75210000     -33.82780000     -71.62730000
C      -45.70580000     -33.03640000     -69.69960000
C      -45.55970000     -33.72340000     -68.49610000
C      -44.70540000     -31.94450000     -69.81160000
H      -46.17380000     -34.54210000     -68.17800000
C      -43.93050000     -31.86590000     -68.66100000
C      -44.43780000     -30.88740000     -70.70720000
C      -43.56680000     -29.94370000     -70.14040000
S      -44.18610000     -33.13380000     -67.45510000
S      -43.14040000     -30.29810000     -68.44080000
H      -42.97990000     -29.13680000     -70.44940000
