40
Properties=species:S:1:pos:R:3 #=T CELL(abcABC):=T 1.889726e+02=T 90.00000=T Traj:=T positionsangstrom=T Step:=T 0=T Bead:=T pbc="F F F"
C      -43.70380000     -35.33560000     -73.32330000
C      -44.84850000     -34.78150000     -73.90270000
C      -46.13990000     -35.20620000     -73.44520000
C      -46.26050000     -36.12520000     -72.37130000
C      -45.08940000     -36.55980000     -71.73010000
C      -43.80680000     -36.21330000     -72.24360000
H      -42.74080000     -35.16910000     -73.81180000
H      -46.96280000     -34.76840000     -73.89400000
H      -45.30290000     -37.36940000     -70.97740000
H      -42.87580000     -36.63040000     -71.81510000
C      -47.59480000     -36.70750000     -71.90310000
H      -47.41590000     -37.34780000     -71.00720000
H      -48.19550000     -37.21570000     -72.64900000
C      -44.80780000     -33.97190000     -75.22670000
H      -43.78070000     -34.07580000     -75.67190000
H      -45.52060000     -34.32180000     -76.01600000
S      -48.80820000     -35.29160000     -71.62430000
S      -45.05260000     -32.11400000     -74.78970000
C      -47.91830000     -34.22960000     -70.29720000
H      -48.71510000     -33.58910000     -70.06810000
H      -47.62330000     -34.87690000     -69.48480000
C      -44.58780000     -32.14470000     -73.00710000
H      -43.45890000     -32.10820000     -72.97220000
H      -44.75090000     -33.15610000     -72.57870000
C      -45.12930000     -30.97180000     -72.25080000
H      -44.85410000     -30.13180000     -72.82570000
H      -46.20820000     -31.10750000     -72.16300000
C      -46.72910000     -33.37830000     -70.81620000
H      -47.19180000     -32.44730000     -71.26600000
H      -46.25730000     -33.85250000     -71.67120000
C      -45.73140000     -33.02660000     -69.73400000
C      -45.64140000     -33.70660000     -68.56280000
C      -44.87760000     -31.94490000     -69.82890000
H      -46.13820000     -34.63490000     -68.26610000
C      -44.17670000     -31.66860000     -68.64710000
C      -44.47880000     -31.00750000     -70.86280000
C      -43.60500000     -30.07010000     -70.42860000
S      -44.34650000     -33.07150000     -67.54680000
S      -42.99620000     -30.38370000     -68.82420000
H      -43.12340000     -29.24030000     -70.97950000
