40
Properties=species:S:1:pos:R:3 #=T CELL(abcABC):=T 1.889726e+02=T 90.00000=T Traj:=T positionsangstrom=T Step:=T 0=T Bead:=T pbc="F F F"
C      -47.22140000     -36.71800000     -69.59160000
C      -46.35130000     -36.59580000     -70.69370000
C      -45.00420000     -36.31590000     -70.47590000
C      -44.51820000     -36.08960000     -69.17920000
C      -45.40070000     -36.16540000     -68.13440000
C      -46.75220000     -36.51890000     -68.30130000
H      -48.22620000     -36.93770000     -69.86350000
H      -44.36580000     -36.29130000     -71.36840000
H      -44.98390000     -36.03550000     -67.10230000
H      -47.38270000     -36.54150000     -67.43840000
C      -43.04940000     -35.88800000     -69.00690000
H      -42.50190000     -36.83420000     -68.93340000
H      -42.80150000     -35.44070000     -68.06180000
C      -46.93080000     -36.81110000     -72.10800000
H      -46.13450000     -37.19040000     -72.66950000
H      -47.78170000     -37.50410000     -72.12030000
S      -42.17330000     -34.74550000     -70.22480000
S      -47.69050000     -35.30050000     -72.82910000
C      -43.15160000     -33.17170000     -70.17340000
H      -44.22650000     -33.39540000     -70.15010000
H      -42.89670000     -32.48970000     -69.26410000
C      -46.28750000     -34.51780000     -73.85310000
H      -46.63230000     -34.12400000     -74.78830000
H      -45.68010000     -35.38010000     -74.16570000
C      -45.38430000     -33.67370000     -73.04660000
H      -45.09570000     -34.24760000     -72.15290000
H      -44.41710000     -33.55440000     -73.63880000
C      -42.81280000     -32.30670000     -71.41620000
H      -42.93010000     -32.87340000     -72.35810000
H      -41.79760000     -31.99920000     -71.40620000
C      -43.74320000     -31.12970000     -71.53990000
C      -43.46380000     -29.89380000     -70.97580000
C      -45.08890000     -31.25210000     -72.07780000
H      -42.54740000     -29.67850000     -70.52550000
C      -45.74580000     -30.00760000     -72.09610000
C      -45.88470000     -32.29000000     -72.71870000
C      -47.09840000     -31.83430000     -73.18960000
S      -44.81680000     -28.75500000     -71.32890000
S      -47.39240000     -30.16800000     -72.73370000
H      -47.80640000     -32.49250000     -73.50940000
