40
Properties=species:S:1:pos:R:3 #=T CELL(abcABC):=T 1.889726e+02=T 90.00000=T Traj:=T positionsangstrom=T Step:=T 0=T Bead:=T pbc="F F F"
C      -48.03800000     -36.56680000     -69.89740000
C      -46.84340000     -36.70980000     -70.70490000
C      -46.76270000     -36.12860000     -71.96230000
C      -47.82060000     -35.40510000     -72.53210000
C      -48.96970000     -35.26760000     -71.71190000
C      -49.08250000     -35.85650000     -70.46930000
H      -48.05410000     -37.03270000     -68.91590000
H      -45.80580000     -36.14370000     -72.51650000
H      -49.89770000     -34.78970000     -72.04290000
H      -50.05490000     -35.69930000     -69.89430000
C      -47.66530000     -34.85440000     -73.94530000
H      -48.60420000     -35.11500000     -74.56010000
H      -46.79590000     -35.25230000     -74.51490000
C      -45.71260000     -37.46870000     -70.09690000
H      -45.87390000     -37.64940000     -69.04150000
H      -45.65060000     -38.39010000     -70.65690000
S      -47.61230000     -32.95680000     -74.15370000
S      -43.99820000     -36.73970000     -70.27220000
C      -46.11800000     -32.50020000     -73.19630000
H      -45.40860000     -33.38860000     -73.26380000
H      -45.60080000     -31.64470000     -73.66580000
C      -44.25070000     -34.86410000     -70.06890000
H      -43.71690000     -34.68070000     -69.13520000
H      -45.30490000     -34.55660000     -69.91970000
C      -43.51810000     -34.19370000     -71.27060000
H      -42.70950000     -34.80720000     -71.62090000
H      -44.14600000     -34.21380000     -72.14280000
C      -46.50200000     -32.13920000     -71.76570000
H      -46.75960000     -33.04120000     -71.26690000
H      -47.39430000     -31.47360000     -71.79150000
C      -45.35800000     -31.27850000     -71.19390000
C      -45.62840000     -29.90550000     -70.98110000
C      -44.00150000     -31.60910000     -70.90940000
H      -46.53210000     -29.40120000     -71.10260000
C      -43.27180000     -30.46530000     -70.58810000
C      -43.13830000     -32.78440000     -70.93050000
C      -41.77780000     -32.37820000     -70.80640000
S      -44.27280000     -28.99630000     -70.38780000
S      -41.56520000     -30.65810000     -70.39700000
H      -41.05570000     -33.16420000     -71.02910000
