40
Properties=species:S:1:pos:R:3 #=T CELL(abcABC):=T 1.889726e+02=T 90.00000=T Traj:=T positionsangstrom=T Step:=T 0=T Bead:=T pbc="F F F"
C      -47.95640000     -36.00980000     -69.79940000
C      -46.89280000     -36.47600000     -70.49430000
C      -46.91630000     -36.30720000     -71.96060000
C      -47.93200000     -35.54330000     -72.54130000
C      -49.07620000     -35.24070000     -71.82120000
C      -49.07580000     -35.44780000     -70.45120000
H      -47.98820000     -36.15830000     -68.69800000
H      -46.04140000     -36.72350000     -72.47600000
H      -49.98650000     -34.83680000     -72.28750000
H      -49.82460000     -35.18960000     -69.70080000
C      -47.85070000     -35.07840000     -73.95730000
H      -48.70120000     -35.37070000     -74.54340000
H      -47.01520000     -35.48580000     -74.61330000
C      -45.78660000     -37.04290000     -69.74880000
H      -45.90080000     -36.66670000     -68.65670000
H      -45.84780000     -38.11240000     -69.68680000
S      -47.87670000     -33.20740000     -74.17760000
S      -44.06000000     -36.68860000     -70.18400000
C      -46.27400000     -32.72990000     -73.38480000
H      -45.56440000     -33.50520000     -73.73720000
H      -45.91960000     -31.75700000     -73.86210000
C      -43.78960000     -34.84200000     -70.03500000
H      -43.12360000     -34.59350000     -69.12530000
H      -44.68180000     -34.36050000     -69.64600000
C      -43.22350000     -34.15110000     -71.26720000
H      -42.43490000     -34.75110000     -71.75360000
H      -44.02360000     -33.99790000     -72.04480000
C      -46.26230000     -32.46540000     -71.80270000
H      -46.20890000     -33.46990000     -71.29520000
H      -47.24800000     -32.11770000     -71.59970000
C      -45.28440000     -31.38910000     -71.35200000
C      -45.67360000     -30.06850000     -71.22930000
C      -43.89080000     -31.58810000     -71.01600000
H      -46.57830000     -29.60350000     -71.35450000
C      -43.24450000     -30.43510000     -70.62270000
C      -42.88810000     -32.70430000     -71.02330000
C      -41.64830000     -32.33320000     -70.54300000
S      -44.29920000     -29.02530000     -70.68740000
S      -41.55630000     -30.64850000     -70.20340000
H      -40.80320000     -33.00810000     -70.45390000
