40
Properties=species:S:1:pos:R:3 #=T CELL(abcABC):=T 1.889726e+02=T 90.00000=T Traj:=T positionsangstrom=T Step:=T 0=T Bead:=T pbc="F F F"
C      -47.60130000     -35.29730000     -69.32060000
C      -46.81130000     -36.17210000     -70.05630000
C      -46.89470000     -36.06510000     -71.52070000
C      -47.96470000     -35.30530000     -72.06710000
C      -48.83070000     -34.61310000     -71.22360000
C      -48.62370000     -34.52870000     -69.84230000
H      -47.39430000     -35.17520000     -68.31280000
H      -46.16800000     -36.45340000     -72.25590000
H      -49.61150000     -33.83370000     -71.64260000
H      -49.14860000     -33.84590000     -69.22780000
C      -48.22000000     -35.24170000     -73.55770000
H      -49.27180000     -35.61750000     -73.88910000
H      -47.56150000     -35.93890000     -74.12110000
C      -45.75390000     -37.08850000     -69.51390000
H      -45.78280000     -37.12100000     -68.34980000
H      -45.96570000     -38.12040000     -69.89950000
S      -47.97660000     -33.50040000     -74.25190000
S      -44.02920000     -36.85290000     -70.03380000
C      -46.46400000     -32.70820000     -73.57550000
H      -45.55580000     -33.12370000     -74.07250000
H      -46.48440000     -31.71320000     -73.93450000
C      -43.71680000     -35.00740000     -70.08280000
H      -43.02070000     -34.71350000     -69.23180000
H      -44.67500000     -34.57050000     -69.72960000
C      -43.22280000     -34.30850000     -71.44430000
H      -42.33050000     -34.77260000     -71.84670000
H      -43.96750000     -34.45550000     -72.18290000
C      -46.22900000     -32.68310000     -71.99450000
H      -45.82950000     -33.72570000     -71.84020000
H      -47.10920000     -32.49060000     -71.41180000
C      -45.29030000     -31.56830000     -71.58500000
C      -45.71860000     -30.26960000     -71.49260000
C      -43.89530000     -31.75230000     -71.34640000
H      -46.74240000     -29.99620000     -71.73010000
C      -43.25180000     -30.48770000     -71.03280000
C      -42.95320000     -32.82930000     -71.22570000
C      -41.66990000     -32.40280000     -70.85880000
S      -44.41540000     -29.19280000     -70.99350000
S      -41.59440000     -30.62780000     -70.49690000
H      -40.76340000     -32.98360000     -70.79920000
