40
Properties=species:S:1:pos:R:3 #=T CELL(abcABC):=T 1.889726e+02=T 90.00000=T Traj:=T positionsangstrom=T Step:=T 0=T Bead:=T pbc="F F F"
C      -47.68160000     -35.60630000     -69.02380000
C      -46.79470000     -36.22460000     -69.92340000
C      -47.05350000     -36.10310000     -71.28490000
C      -48.14850000     -35.37290000     -71.75380000
C      -49.04170000     -34.80140000     -70.87960000
C      -48.81000000     -34.95870000     -69.50940000
H      -47.54310000     -35.58150000     -67.88730000
H      -46.37960000     -36.59390000     -71.97710000
H      -49.76990000     -34.18740000     -71.23780000
H      -49.50550000     -34.44600000     -68.83340000
C      -48.31990000     -35.16100000     -73.20060000
H      -49.29440000     -35.55030000     -73.58270000
H      -47.55070000     -35.67760000     -73.78600000
C      -45.62380000     -36.94520000     -69.37120000
H      -45.47690000     -36.68540000     -68.27790000
H      -45.77700000     -37.96730000     -69.31790000
S      -48.10810000     -33.39420000     -73.93100000
S      -44.03760000     -36.79300000     -70.15380000
C      -46.41540000     -32.76450000     -73.35180000
H      -45.71830000     -33.61400000     -73.50040000
H      -46.07870000     -32.03110000     -74.09160000
C      -43.58080000     -34.94700000     -70.08290000
H      -42.49460000     -34.90590000     -69.75680000
H      -44.07780000     -34.38900000     -69.24340000
C      -43.51410000     -34.32890000     -71.47090000
H      -42.85190000     -34.90850000     -72.10390000
H      -44.49860000     -34.36210000     -71.90490000
C      -46.55260000     -32.22340000     -71.91670000
H      -46.70280000     -33.04780000     -71.21310000
H      -47.46600000     -31.64480000     -71.88260000
C      -45.33680000     -31.31220000     -71.62920000
C      -45.49700000     -29.93510000     -71.66620000
C      -43.90810000     -31.73390000     -71.44500000
H      -46.37980000     -29.37710000     -71.80020000
C      -43.14690000     -30.64360000     -71.19110000
C      -43.06180000     -32.91850000     -71.40110000
C      -41.71770000     -32.59540000     -71.09190000
S      -43.99510000     -29.08060000     -71.27680000
S      -41.43400000     -30.82790000     -71.08430000
H      -40.82050000     -33.22740000     -71.20410000
