40
Properties=species:S:1:pos:R:3 #=T CELL(abcABC):=T 1.889726e+02=T 90.00000=T Traj:=T positionsangstrom=T Step:=T 0=T Bead:=T pbc="F F F"
C      -47.72820000     -35.40030000     -68.73810000
C      -46.90050000     -36.13590000     -69.64370000
C      -47.10690000     -35.97560000     -71.01390000
C      -48.03200000     -35.03830000     -71.42970000
C      -48.86770000     -34.35900000     -70.56070000
C      -48.71360000     -34.50830000     -69.17480000
H      -47.62280000     -35.58260000     -67.67200000
H      -46.43550000     -36.51470000     -71.63350000
H      -49.59960000     -33.65640000     -70.99900000
H      -49.39400000     -33.93650000     -68.50420000
C      -48.28380000     -34.97390000     -72.94100000
H      -49.29670000     -35.43450000     -73.17670000
H      -47.50490000     -35.49130000     -73.35460000
C      -45.82860000     -37.08090000     -69.18250000
H      -46.04280000     -37.19450000     -68.15430000
H      -46.00100000     -38.04450000     -69.65500000
S      -48.49960000     -33.24890000     -73.50260000
S      -44.11330000     -36.68720000     -69.70410000
C      -46.78730000     -32.60280000     -73.43000000
H      -46.24830000     -33.44760000     -73.88830000
H      -46.73330000     -31.76920000     -74.09050000
C      -43.80530000     -34.89420000     -69.82020000
H      -42.78080000     -34.75690000     -69.34350000
H      -44.48050000     -34.40050000     -69.14470000
C      -43.76380000     -34.45120000     -71.28070000
H      -43.11960000     -35.18550000     -71.72230000
H      -44.68980000     -34.54780000     -71.74550000
C      -46.39570000     -32.26280000     -71.93410000
H      -46.20000000     -33.19020000     -71.37740000
H      -47.16670000     -31.74320000     -71.40080000
C      -45.15240000     -31.36540000     -71.83550000
C      -45.22020000     -30.06080000     -72.20860000
C      -43.83340000     -31.81640000     -71.63050000
H      -46.07800000     -29.50330000     -72.51340000
C      -42.91740000     -30.72730000     -71.64810000
C      -43.11210000     -33.07870000     -71.46330000
C      -41.73450000     -32.97550000     -71.45440000
S      -43.65160000     -29.20250000     -72.01400000
S      -41.25610000     -31.28560000     -71.58210000
H      -40.96780000     -33.69490000     -71.44970000
