40
Properties=species:S:1:pos:R:3 #=T CELL(abcABC):=T 1.889726e+02=T 90.00000=T Traj:=T positionsangstrom=T Step:=T 0=T Bead:=T pbc="F F F"
C      -47.69680000     -35.01740000     -68.34450000
C      -46.89150000     -35.77600000     -69.16150000
C      -47.16630000     -35.82940000     -70.61150000
C      -48.14100000     -34.95720000     -71.16200000
C      -48.87730000     -34.14870000     -70.28430000
C      -48.70370000     -34.24530000     -68.91360000
H      -47.65030000     -35.11360000     -67.28170000
H      -46.43850000     -36.39580000     -71.25910000
H      -49.59720000     -33.39100000     -70.75330000
H      -49.27100000     -33.59210000     -68.23720000
C      -48.36350000     -35.04600000     -72.66470000
H      -49.36320000     -35.50580000     -72.98840000
H      -47.45380000     -35.60110000     -73.02240000
C      -45.70160000     -36.60960000     -68.56520000
H      -45.49740000     -36.20180000     -67.57510000
H      -45.91530000     -37.71210000     -68.35190000
S      -48.37330000     -33.51350000     -73.66450000
S      -44.27810000     -36.72280000     -69.70220000
C      -46.70480000     -33.00110000     -73.42170000
H      -46.06570000     -33.89040000     -73.48630000
H      -46.33870000     -32.37730000     -74.31800000
C      -43.81310000     -34.92850000     -69.82800000
H      -42.70860000     -34.90920000     -69.53160000
H      -44.37030000     -34.29770000     -69.12120000
C      -43.87560000     -34.39950000     -71.34800000
H      -43.50910000     -35.21760000     -71.96590000
H      -44.89360000     -34.29160000     -71.70280000
C      -46.46580000     -32.22700000     -72.05890000
H      -46.55560000     -32.94980000     -71.18220000
H      -47.25150000     -31.51070000     -72.05240000
C      -45.18790000     -31.42070000     -72.00900000
C      -45.22670000     -30.08770000     -72.32040000
C      -43.81350000     -31.87330000     -71.86140000
H      -46.10480000     -29.48470000     -72.48470000
C      -42.89880000     -30.83160000     -71.94490000
C      -43.18090000     -33.08550000     -71.59160000
C      -41.77340000     -33.03980000     -71.57660000
S      -43.57130000     -29.27050000     -72.35800000
S      -41.19370000     -31.41530000     -71.81730000
H      -41.13640000     -33.91010000     -71.51750000
