40
Properties=species:S:1:pos:R:3 #=T CELL(abcABC):=T 1.889726e+02=T 90.00000=T Traj:=T positionsangstrom=T Step:=T 0=T Bead:=T pbc="F F F"
C      -47.71560000     -34.52540000     -68.35010000
C      -46.94360000     -35.38000000     -69.13370000
C      -47.25200000     -35.53490000     -70.52410000
C      -48.37030000     -34.98000000     -71.05960000
C      -49.18690000     -34.13150000     -70.25430000
C      -48.84170000     -33.89930000     -68.91820000
H      -47.58090000     -34.45670000     -67.27840000
H      -46.60130000     -36.15490000     -71.10110000
H      -49.98010000     -33.57450000     -70.72630000
H      -49.44230000     -33.19900000     -68.37460000
C      -48.72430000     -35.16170000     -72.48300000
H      -49.82110000     -35.46010000     -72.59380000
H      -48.04280000     -35.69000000     -73.11000000
C      -45.71650000     -35.97150000     -68.34880000
H      -45.36410000     -35.22130000     -67.64370000
H      -46.00810000     -36.88220000     -67.80980000
S      -48.70590000     -33.48370000     -73.26350000
S      -44.36670000     -36.66570000     -69.42040000
C      -46.89350000     -32.84980000     -73.27360000
H      -46.34550000     -33.63080000     -73.72630000
H      -46.85700000     -32.08780000     -74.01180000
C      -43.30970000     -35.18070000     -69.88260000
H      -42.29300000     -35.43560000     -69.82180000
H      -43.34580000     -34.55310000     -68.98510000
C      -43.83280000     -34.46740000     -71.09350000
H      -43.90420000     -35.15680000     -71.91670000
H      -44.85150000     -34.15820000     -70.95240000
C      -46.27240000     -32.33160000     -71.99510000
H      -46.07820000     -33.17230000     -71.31250000
H      -46.92440000     -31.60430000     -71.46980000
C      -45.01620000     -31.54190000     -72.13750000
C      -45.04250000     -30.27380000     -72.69890000
C      -43.64100000     -31.98390000     -71.89730000
H      -45.95870000     -29.71230000     -72.89860000
C      -42.70590000     -30.97280000     -72.23530000
C      -43.03490000     -33.22600000     -71.44450000
C      -41.66780000     -33.14000000     -71.42460000
S      -43.41100000     -29.55750000     -72.88870000
S      -41.04110000     -31.65150000     -72.22490000
H      -41.02220000     -33.90790000     -71.08000000
