40
Properties=species:S:1:pos:R:3 #=T CELL(abcABC):=T 1.889726e+02=T 90.00000=T Traj:=T positionsangstrom=T Step:=T 0=T Bead:=T pbc="F F F"
C      -47.68740000     -34.34520000     -68.20510000
C      -46.89270000     -35.31420000     -68.91790000
C      -47.24050000     -35.57080000     -70.24860000
C      -48.21100000     -34.88080000     -70.93680000
C      -49.09090000     -34.07030000     -70.18960000
C      -48.84550000     -33.84730000     -68.82080000
H      -47.30110000     -33.81460000     -67.37330000
H      -46.72230000     -36.34510000     -70.87150000
H      -50.02760000     -33.63340000     -70.64490000
H      -49.45410000     -33.20800000     -68.26300000
C      -48.51440000     -34.98760000     -72.42190000
H      -49.47690000     -35.51160000     -72.48670000
H      -47.87410000     -35.69040000     -72.84610000
C      -45.70490000     -36.00540000     -68.26810000
H      -45.21070000     -35.30740000     -67.62580000
H      -46.08440000     -36.82430000     -67.56300000
S      -48.58070000     -33.33010000     -73.23690000
S      -44.39840000     -36.73510000     -69.42740000
C      -46.76640000     -32.91640000     -73.17440000
H      -46.13500000     -33.82190000     -73.27170000
H      -46.57810000     -32.23360000     -74.05990000
C      -43.22240000     -35.32620000     -69.90850000
H      -42.28940000     -35.80730000     -70.36530000
H      -43.08220000     -34.65160000     -69.06260000
C      -43.92810000     -34.55460000     -71.05360000
H      -44.30490000     -35.23660000     -71.86120000
H      -44.86010000     -34.13210000     -70.60330000
C      -46.39930000     -32.10860000     -71.96030000
H      -46.22640000     -32.74040000     -71.04210000
H      -47.14540000     -31.31320000     -71.89340000
C      -45.06640000     -31.49210000     -72.22380000
C      -45.02840000     -30.23650000     -72.80130000
C      -43.77170000     -32.05320000     -72.05590000
H      -45.77840000     -29.60600000     -73.11440000
C      -42.78520000     -31.09740000     -72.40550000
C      -43.14020000     -33.37010000     -71.66090000
C      -41.76300000     -33.19550000     -71.59370000
S      -43.43190000     -29.71230000     -73.14470000
S      -41.18010000     -31.65700000     -72.12340000
H      -41.06140000     -33.90050000     -71.24250000
