40
Properties=species:S:1:pos:R:3 #=T CELL(abcABC):=T 1.889726e+02=T 90.00000=T Traj:=T positionsangstrom=T Step:=T 0=T Bead:=T pbc="F F F"
C      -47.48710000     -34.42250000     -67.91700000
C      -46.80230000     -35.22510000     -68.77610000
C      -47.20570000     -35.32460000     -70.11330000
C      -48.33720000     -34.67680000     -70.62240000
C      -49.12470000     -33.99690000     -69.70510000
C      -48.64740000     -33.79670000     -68.40660000
H      -47.13470000     -34.30680000     -66.83100000
H      -46.62250000     -35.98260000     -70.77980000
H      -49.88130000     -33.31750000     -70.09670000
H      -49.17440000     -33.07150000     -67.70960000
C      -48.69020000     -34.98280000     -72.07010000
H      -49.65480000     -35.28420000     -72.23380000
H      -47.87010000     -35.60080000     -72.46560000
C      -45.62810000     -36.04360000     -68.21720000
H      -45.12510000     -35.57100000     -67.33480000
H      -46.20440000     -36.91500000     -67.94620000
S      -48.60060000     -33.52050000     -73.27670000
S      -44.38430000     -36.73390000     -69.43600000
C      -46.80930000     -33.01770000     -73.41570000
H      -46.13100000     -33.91440000     -73.42820000
H      -46.68440000     -32.58900000     -74.43100000
C      -43.35610000     -35.27740000     -70.09880000
H      -42.59040000     -35.74600000     -70.61810000
H      -42.74060000     -34.89390000     -69.27820000
C      -44.19140000     -34.21390000     -70.77520000
H      -45.04730000     -34.58370000     -71.37110000
H      -44.66470000     -33.66150000     -69.90350000
C      -46.44730000     -31.93380000     -72.36100000
H      -46.50520000     -32.22840000     -71.27770000
H      -47.08610000     -31.01800000     -72.24600000
C      -45.09260000     -31.35300000     -72.57750000
C      -44.87640000     -30.19940000     -73.25230000
C      -43.83540000     -32.01970000     -72.22030000
H      -45.63500000     -29.56100000     -73.63580000
C      -42.75170000     -31.30310000     -72.69610000
C      -43.34840000     -33.20000000     -71.55430000
C      -41.97580000     -33.33020000     -71.54690000
S      -43.18520000     -29.68470000     -73.21690000
S      -41.19890000     -31.93540000     -72.24470000
H      -41.38610000     -34.11100000     -71.11530000
