40
Properties=species:S:1:pos:R:3 #=T CELL(abcABC):=T 1.889726e+02=T 90.00000=T Traj:=T positionsangstrom=T Step:=T 0=T Bead:=T pbc="F F F"
C      -41.98230000     -33.96210000     -69.79770000
C      -42.76490000     -35.12180000     -69.93280000
C      -43.09730000     -35.60430000     -71.19640000
C      -42.47280000     -34.93950000     -72.31470000
C      -41.61120000     -33.84080000     -72.15090000
C      -41.43000000     -33.33660000     -70.87900000
H      -41.63020000     -33.72480000     -68.75970000
H      -43.68040000     -36.52610000     -71.40300000
H      -41.02010000     -33.53850000     -73.02430000
H      -40.65920000     -32.55530000     -70.76490000
C      -42.82220000     -35.44310000     -73.69300000
H      -42.32020000     -36.37580000     -73.91010000
H      -42.42380000     -34.75130000     -74.36710000
C      -43.27360000     -35.77990000     -68.63380000
H      -43.01460000     -36.88110000     -68.78880000
H      -42.72260000     -35.43860000     -67.73290000
S      -44.66400000     -35.60080000     -73.94180000
S      -45.11520000     -35.80630000     -68.32590000
C      -45.09400000     -33.88940000     -73.66550000
H      -44.65770000     -33.54610000     -72.76580000
H      -44.69680000     -33.30840000     -74.43090000
C      -45.67520000     -34.13160000     -68.69730000
H      -44.89400000     -33.47620000     -68.44290000
H      -46.53730000     -34.04140000     -67.99210000
C      -46.11120000     -33.96550000     -70.14720000
H      -45.17920000     -34.00340000     -70.60840000
H      -46.68160000     -34.78060000     -70.61410000
C      -46.67810000     -33.73540000     -73.59310000
H      -47.12690000     -34.60120000     -73.11490000
H      -47.01830000     -33.70060000     -74.60630000
C      -47.16650000     -32.48080000     -72.96270000
C      -47.81720000     -31.57020000     -73.75350000
C      -47.01510000     -32.06930000     -71.59250000
H      -47.83070000     -31.55640000     -74.83670000
C      -47.41530000     -30.73860000     -71.45950000
C      -46.67410000     -32.58550000     -70.27770000
C      -46.75560000     -31.63190000     -69.27840000
S      -48.14320000     -30.07170000     -72.85630000
S      -47.45540000     -30.13330000     -69.80010000
H      -46.68820000     -31.82870000     -68.18640000
