40
Properties=species:S:1:pos:R:3 #=T CELL(abcABC):=T 1.889726e+02=T 90.00000=T Traj:=T positionsangstrom=T Step:=T 0=T Bead:=T pbc="F F F"
C      -41.93500000     -34.15670000     -69.75220000
C      -42.61000000     -35.36890000     -69.97460000
C      -42.85990000     -35.76840000     -71.29870000
C      -42.54620000     -34.93060000     -72.37370000
C      -41.82700000     -33.73170000     -72.13360000
C      -41.50150000     -33.33530000     -70.80520000
H      -41.65360000     -33.85320000     -68.74850000
H      -43.32970000     -36.68190000     -71.54180000
H      -41.44820000     -33.03270000     -72.84940000
H      -41.01100000     -32.34060000     -70.61780000
C      -42.84300000     -35.35070000     -73.77510000
H      -42.51220000     -36.37760000     -73.90510000
H      -42.36320000     -34.66770000     -74.41560000
C      -43.16350000     -36.17320000     -68.82900000
H      -42.82050000     -37.19770000     -68.89160000
H      -42.86040000     -35.73250000     -67.83150000
S      -44.67010000     -35.47090000     -74.03870000
S      -45.08980000     -36.13950000     -68.94350000
C      -45.35060000     -33.74340000     -73.60440000
H      -44.63200000     -33.37870000     -72.79820000
H      -45.26670000     -33.08450000     -74.53070000
C      -45.51620000     -34.36720000     -68.86560000
H      -44.69970000     -33.98480000     -68.30460000
H      -46.41870000     -34.30660000     -68.31320000
C      -45.79230000     -33.76870000     -70.20310000
H      -44.86930000     -33.87900000     -70.80920000
H      -46.51790000     -34.41710000     -70.57510000
C      -46.78620000     -33.76510000     -73.17210000
H      -47.06540000     -34.43060000     -72.38380000
H      -47.49660000     -34.06400000     -73.98250000
C      -47.18550000     -32.34740000     -72.75060000
C      -47.89910000     -31.49140000     -73.56180000
C      -46.97160000     -31.87010000     -71.42760000
H      -48.07110000     -31.53580000     -74.64010000
C      -47.61100000     -30.62110000     -71.23560000
C      -46.38830000     -32.37370000     -70.24570000
C      -46.61500000     -31.53990000     -69.14950000
S      -48.29630000     -29.96070000     -72.68380000
S      -47.47500000     -30.08480000     -69.61690000
H      -46.28550000     -31.74050000     -68.13950000
