40
Properties=species:S:1:pos:R:3 #=T CELL(abcABC):=T 1.889726e+02=T 90.00000=T Traj:=T positionsangstrom=T Step:=T 0=T Bead:=T pbc="F F F"
C      -42.07760000     -34.23540000     -69.85110000
C      -42.74940000     -35.39240000     -70.16790000
C      -43.01210000     -35.62120000     -71.52860000
C      -42.50120000     -34.77530000     -72.48540000
C      -41.68960000     -33.65050000     -72.16370000
C      -41.44040000     -33.42650000     -70.82050000
H      -41.85480000     -33.95530000     -68.76480000
H      -43.51570000     -36.50610000     -71.84970000
H      -41.21280000     -32.95130000     -72.91720000
H      -40.73600000     -32.62880000     -70.56150000
C      -42.86480000     -35.10850000     -73.96010000
H      -42.40030000     -36.11380000     -74.19290000
H      -42.57080000     -34.27650000     -74.63640000
C      -43.26950000     -36.27880000     -69.02600000
H      -43.03340000     -37.38170000     -69.20210000
H      -42.86830000     -36.09430000     -68.10620000
S      -44.68750000     -35.43080000     -74.04580000
S      -45.11760000     -36.18450000     -68.77910000
C      -45.22470000     -33.69770000     -73.73440000
H      -44.72770000     -33.34970000     -72.88310000
H      -44.99420000     -33.08280000     -74.56760000
C      -45.46810000     -34.33490000     -68.65680000
H      -44.55050000     -33.90850000     -68.15050000
H      -46.33360000     -34.10790000     -67.94810000
C      -45.64410000     -33.78920000     -70.02720000
H      -44.67250000     -33.61200000     -70.53160000
H      -46.08460000     -34.62350000     -70.65060000
C      -46.77150000     -33.62570000     -73.48700000
H      -47.05580000     -34.50900000     -72.93440000
H      -47.23290000     -33.82450000     -74.47070000
C      -47.18150000     -32.34660000     -72.79700000
C      -47.88350000     -31.36200000     -73.45820000
C      -47.04610000     -31.97280000     -71.39620000
H      -48.13010000     -31.37670000     -74.55430000
C      -47.59760000     -30.71410000     -71.15630000
C      -46.44990000     -32.54950000     -70.13590000
C      -46.55770000     -31.61860000     -69.08460000
S      -48.31360000     -29.98320000     -72.55910000
S      -47.43780000     -30.15140000     -69.55270000
H      -46.21370000     -31.83830000     -68.08690000
