40
Properties=species:S:1:pos:R:3 #=T CELL(abcABC):=T 1.889726e+02=T 90.00000=T Traj:=T positionsangstrom=T Step:=T 0=T Bead:=T pbc="F F F"
C      -48.98230000     -33.47050000     -71.56660000
C      -48.48930000     -34.48590000     -70.77030000
C      -48.04500000     -34.17540000     -69.44000000
C      -47.98170000     -32.87040000     -68.95680000
C      -48.49070000     -31.85390000     -69.82370000
C      -49.00020000     -32.13800000     -71.05590000
H      -49.29380000     -33.75350000     -72.58670000
H      -47.59170000     -34.96240000     -68.78960000
H      -48.29820000     -30.78380000     -69.44870000
H      -49.40810000     -31.41130000     -71.69580000
C      -47.21660000     -32.42590000     -67.75920000
H      -47.78930000     -32.74550000     -66.80000000
H      -47.18200000     -31.33140000     -67.66490000
C      -48.24210000     -35.80020000     -71.37150000
H      -48.53140000     -36.74540000     -70.78120000
H      -48.73830000     -35.75300000     -72.37110000
S      -45.63510000     -33.32120000     -67.53780000
S      -46.43280000     -36.27060000     -71.79800000
C      -44.49680000     -32.67970000     -68.88300000
H      -44.89960000     -31.78000000     -69.29400000
H      -43.58570000     -32.41380000     -68.46790000
C      -46.01780000     -35.19030000     -73.28300000
H      -46.74440000     -35.56590000     -74.08560000
H      -44.97900000     -35.47580000     -73.53000000
C      -46.06430000     -33.64390000     -73.07350000
H      -46.77690000     -33.10260000     -73.78930000
H      -46.36000000     -33.41710000     -72.08850000
C      -44.32590000     -33.71780000     -70.04310000
H      -45.26870000     -34.05640000     -70.45520000
H      -43.80250000     -34.55190000     -69.48480000
C      -43.33020000     -33.23020000     -71.09790000
C      -42.00320000     -33.19840000     -70.83580000
C      -43.61880000     -32.83920000     -72.44430000
H      -41.39170000     -33.63740000     -70.08770000
C      -42.48120000     -32.30550000     -73.11630000
C      -44.74490000     -32.98270000     -73.30150000
C      -44.48690000     -32.50960000     -74.55130000
S      -41.03280000     -32.42040000     -72.14270000
S      -42.80770000     -31.92770000     -74.68220000
H      -45.31880000     -32.35150000     -75.19010000
