40
Properties=species:S:1:pos:R:3 #=T CELL(abcABC):=T 1.889726e+02=T 90.00000=T Traj:=T positionsangstrom=T Step:=T 0=T Bead:=T pbc="F F F"
C      -49.22640000     -33.22450000     -71.65860000
C      -48.49620000     -34.23840000     -70.99160000
C      -47.89670000     -33.93870000     -69.73090000
C      -47.89820000     -32.60650000     -69.28820000
C      -48.52270000     -31.61620000     -69.97360000
C      -49.30680000     -31.89830000     -71.13950000
H      -49.77560000     -33.51930000     -72.53390000
H      -47.46850000     -34.63770000     -69.05450000
H      -48.50240000     -30.59320000     -69.67680000
H      -49.89810000     -31.04760000     -71.49420000
C      -47.36440000     -32.32050000     -67.92490000
H      -47.92060000     -32.59270000     -67.03290000
H      -47.25130000     -31.17530000     -67.86410000
C      -48.30180000     -35.66090000     -71.59780000
H      -48.87020000     -36.29640000     -70.96670000
H      -48.88760000     -35.70930000     -72.50520000
S      -45.66130000     -33.03940000     -67.59380000
S      -46.53670000     -36.23340000     -71.69720000
C      -44.74680000     -32.56210000     -69.09110000
H      -45.38430000     -31.99700000     -69.73340000
H      -43.89410000     -31.92910000     -68.86930000
C      -46.00950000     -35.28610000     -73.19920000
H      -46.72390000     -35.43670000     -74.02440000
H      -44.99680000     -35.64860000     -73.32460000
C      -45.95260000     -33.76320000     -72.98430000
H      -46.65890000     -33.28720000     -73.66630000
H      -46.35240000     -33.42800000     -71.94310000
C      -44.31170000     -33.79170000     -69.88140000
H      -45.22030000     -34.40940000     -70.19610000
H      -43.83220000     -34.47770000     -69.09540000
C      -43.29120000     -33.52860000     -70.98820000
C      -42.02500000     -33.25610000     -70.62420000
C      -43.44880000     -33.17500000     -72.38620000
H      -41.73940000     -33.00750000     -69.59970000
C      -42.36850000     -32.64500000     -73.03120000
C      -44.62080000     -33.17630000     -73.23890000
C      -44.34830000     -32.60370000     -74.46590000
S      -40.98030000     -32.50280000     -71.86190000
S      -42.61110000     -32.30820000     -74.68850000
H      -44.96070000     -32.75840000     -75.39230000
