40
Properties=species:S:1:pos:R:3 #=T CELL(abcABC):=T 1.889726e+02=T 90.00000=T Traj:=T positionsangstrom=T Step:=T 0=T Bead:=T pbc="F F F"
C      -47.18370000     -35.57020000     -69.62460000
C      -46.60340000     -36.25880000     -70.68730000
C      -45.23710000     -36.47130000     -70.58290000
C      -44.40000000     -36.10220000     -69.56380000
C      -45.04720000     -35.38140000     -68.56490000
C      -46.42840000     -35.21210000     -68.52180000
H      -48.20640000     -35.27200000     -69.56770000
H      -44.88040000     -37.03770000     -71.43500000
H      -44.38900000     -35.13120000     -67.72720000
H      -46.82350000     -34.62840000     -67.80670000
C      -42.88940000     -36.33350000     -69.68860000
H      -42.76690000     -37.34360000     -70.07920000
H      -42.47760000     -36.32040000     -68.66360000
C      -47.34070000     -36.71750000     -71.87830000
H      -46.70840000     -37.12450000     -72.64350000
H      -48.05000000     -37.55200000     -71.70160000
S      -42.11560000     -35.15830000     -70.90630000
S      -48.04750000     -35.26400000     -72.80750000
C      -42.92630000     -33.59140000     -70.37630000
H      -43.91030000     -33.59840000     -70.02190000
H      -42.48140000     -33.20210000     -69.44110000
C      -46.47570000     -34.56750000     -73.65040000
H      -46.88010000     -33.96540000     -74.50290000
H      -45.91450000     -35.45050000     -73.95960000
C      -45.52550000     -33.74440000     -72.81610000
H      -45.16850000     -34.38780000     -71.97570000
H      -44.68420000     -33.65500000     -73.48400000
C      -42.77800000     -32.53350000     -71.46930000
H      -42.98740000     -33.02610000     -72.46840000
H      -41.75410000     -32.16350000     -71.50460000
C      -43.74770000     -31.35370000     -71.38210000
C      -43.33770000     -30.07490000     -71.02180000
C      -45.07350000     -31.43940000     -71.80430000
H      -42.48960000     -29.67350000     -70.54060000
C      -45.66780000     -30.10120000     -71.76690000
C      -45.90680000     -32.38820000     -72.46610000
C      -47.14730000     -31.82750000     -72.71870000
S      -44.59730000     -28.88690000     -71.22370000
S      -47.36640000     -30.25380000     -72.14400000
H      -47.98230000     -32.58620000     -73.03240000
