40
Properties=species:S:1:pos:R:3 #=T CELL(abcABC):=T 1.889726e+02=T 90.00000=T Traj:=T positionsangstrom=T Step:=T 0=T Bead:=T pbc="F F F"
C      -42.32180000     -34.28630000     -69.84890000
C      -43.00700000     -35.53070000     -70.17840000
C      -43.21970000     -35.86800000     -71.53900000
C      -42.84900000     -34.92250000     -72.58250000
C      -42.08500000     -33.82770000     -72.24160000
C      -41.75110000     -33.55980000     -70.90430000
H      -42.08630000     -34.12890000     -68.77570000
H      -43.65210000     -36.79660000     -71.83450000
H      -41.62010000     -33.18720000     -73.00580000
H      -41.03700000     -32.73850000     -70.81200000
C      -43.03710000     -35.23510000     -74.08110000
H      -43.05010000     -36.35710000     -74.22750000
H      -42.18690000     -34.87610000     -74.65570000
C      -43.32890000     -36.54150000     -69.19380000
H      -43.04290000     -37.57710000     -69.53720000
H      -42.76650000     -36.32680000     -68.31820000
S      -44.61370000     -34.56200000     -74.81490000
S      -45.15370000     -36.50130000     -68.89360000
C      -45.33160000     -33.35030000     -73.60070000
H      -44.68530000     -33.30500000     -72.69020000
H      -45.21790000     -32.30300000     -74.01240000
C      -45.49980000     -34.71020000     -68.81000000
H      -44.59090000     -34.21900000     -68.57300000
H      -46.17790000     -34.48870000     -67.94390000
C      -46.00590000     -34.04950000     -70.10220000
H      -45.28550000     -34.28070000     -70.88300000
H      -47.02280000     -34.50830000     -70.28620000
C      -46.77500000     -33.62290000     -73.16960000
H      -46.76930000     -34.48530000     -72.46760000
H      -47.41940000     -33.86380000     -74.05990000
C      -47.22790000     -32.31490000     -72.56750000
C      -47.86010000     -31.32040000     -73.21710000
C      -46.87480000     -31.95220000     -71.16790000
H      -48.25110000     -31.34540000     -74.17860000
C      -47.33170000     -30.58500000     -70.88510000
C      -46.28130000     -32.57760000     -70.06000000
C      -46.17140000     -31.72030000     -68.98810000
S      -48.27010000     -29.91970000     -72.25330000
S      -46.86840000     -30.13360000     -69.29820000
H      -45.79740000     -31.92780000     -67.98100000
