40
Properties=species:S:1:pos:R:3 #=T CELL(abcABC):=T 1.889726e+02=T 90.00000=T Traj:=T positionsangstrom=T Step:=T 0=T Bead:=T pbc="F F F"
C      -42.22110000     -34.60700000     -70.07330000
C      -43.06130000     -35.71230000     -70.50480000
C      -43.40650000     -35.83580000     -71.86780000
C      -42.87480000     -34.97150000     -72.81840000
C      -42.19040000     -33.85570000     -72.44770000
C      -41.90230000     -33.67640000     -71.03650000
H      -41.93510000     -34.43610000     -69.07220000
H      -44.01890000     -36.72740000     -72.06430000
H      -41.73420000     -33.20000000     -73.12580000
H      -41.23340000     -32.88540000     -70.61460000
C      -43.19680000     -35.18640000     -74.27920000
H      -42.70900000     -36.10580000     -74.66460000
H      -42.70270000     -34.32350000     -74.79980000
C      -43.57530000     -36.75690000     -69.42620000
H      -43.55920000     -37.66230000     -69.92510000
H      -42.90970000     -36.88380000     -68.48940000
S      -45.04040000     -35.22670000     -74.44180000
S      -45.32240000     -36.40170000     -68.85720000
C      -45.47810000     -33.45000000     -74.04840000
H      -44.57590000     -33.04810000     -73.57920000
H      -45.48200000     -32.94520000     -75.00220000
C      -45.28370000     -34.54560000     -68.81090000
H      -44.25260000     -34.19070000     -68.62270000
H      -46.02460000     -34.05270000     -68.08220000
C      -45.76600000     -33.98480000     -70.14620000
H      -44.93370000     -34.11990000     -70.90350000
H      -46.69200000     -34.57030000     -70.47690000
C      -46.78620000     -33.31020000     -73.29470000
H      -46.90600000     -34.15400000     -72.54580000
H      -47.61790000     -33.42640000     -73.95920000
C      -47.02270000     -31.99220000     -72.53730000
C      -47.58270000     -30.94650000     -73.16580000
C      -46.84870000     -31.81300000     -71.09520000
H      -47.69370000     -30.92190000     -74.25910000
C      -47.18710000     -30.53390000     -70.75120000
C      -46.21450000     -32.53680000     -69.97730000
C      -46.12850000     -31.79150000     -68.79580000
S      -47.82850000     -29.50860000     -72.04060000
S      -46.79530000     -30.18240000     -69.07560000
H      -45.87790000     -32.18590000     -67.83120000
