40
Properties=species:S:1:pos:R:3 #=T CELL(abcABC):=T 1.889726e+02=T 90.00000=T Traj:=T positionsangstrom=T Step:=T 0=T Bead:=T pbc="F F F"
C      -46.59760000     -29.20350000     -69.44820000
C      -45.81840000     -30.19640000     -70.03610000
C      -45.77520000     -31.48400000     -69.58090000
C      -46.55130000     -31.81580000     -68.45020000
C      -47.34110000     -30.81870000     -67.80180000
C      -47.31800000     -29.51970000     -68.33540000
H      -46.60440000     -28.14360000     -69.84650000
H      -45.27700000     -32.28330000     -70.13740000
H      -47.93160000     -31.20070000     -66.92820000
H      -47.93160000     -28.71970000     -67.88900000
C      -46.54730000     -33.18310000     -67.82050000
H      -46.90300000     -33.00100000     -66.85440000
H      -45.51650000     -33.69980000     -67.85890000
C      -45.06680000     -29.84460000     -71.29340000
H      -45.49080000     -30.30150000     -72.16390000
H      -45.09100000     -28.82770000     -71.59500000
S      -47.88120000     -34.31900000     -68.36060000
S      -43.24610000     -30.26940000     -71.31320000
C      -47.49860000     -34.65570000     -70.16210000
H      -48.12640000     -35.48240000     -70.38420000
H      -47.79220000     -33.74370000     -70.73840000
C      -43.19400000     -31.78620000     -72.35080000
H      -42.31620000     -31.76200000     -72.97990000
H      -44.02010000     -31.78110000     -73.00930000
C      -43.12570000     -33.15820000     -71.65460000
H      -42.06420000     -33.36510000     -71.28780000
H      -43.89800000     -33.17420000     -70.87200000
C      -46.07770000     -35.20220000     -70.42760000
H      -45.86550000     -36.10730000     -69.82710000
H      -45.35920000     -34.50320000     -69.94510000
C      -45.71160000     -35.55570000     -71.92780000
C      -46.51950000     -36.37490000     -72.61640000
C      -44.55680000     -35.15510000     -72.77170000
H      -47.45230000     -36.83220000     -72.23010000
C      -44.52950000     -35.83280000     -73.98420000
C      -43.45240000     -34.19050000     -72.71890000
C      -42.56100000     -34.41100000     -73.76770000
S      -45.90940000     -36.84060000     -74.19410000
S      -43.05600000     -35.71540000     -74.87920000
H      -41.68640000     -33.92000000     -73.96050000
