40
Properties=species:S:1:pos:R:3 #=T CELL(abcABC):=T 1.889726e+02=T 90.00000=T Traj:=T positionsangstrom=T Step:=T 0=T Bead:=T pbc="F F F"
C      -46.87160000     -29.25420000     -69.83610000
C      -45.82130000     -30.11860000     -70.18130000
C      -45.64180000     -31.30590000     -69.38710000
C      -46.47930000     -31.44740000     -68.26360000
C      -47.42660000     -30.46770000     -67.88030000
C      -47.60290000     -29.37120000     -68.67270000
H      -47.05960000     -28.39010000     -70.48010000
H      -44.93910000     -32.07970000     -69.68000000
H      -48.11250000     -30.58410000     -67.02770000
H      -48.38270000     -28.66650000     -68.38930000
C      -46.36940000     -32.76460000     -67.48980000
H      -46.92130000     -32.67970000     -66.52200000
H      -45.40950000     -33.25680000     -67.46000000
C      -44.97970000     -29.92670000     -71.42920000
H      -45.45400000     -30.46530000     -72.32790000
H      -44.90190000     -28.87000000     -71.67870000
S      -47.47320000     -34.08750000     -68.21480000
S      -43.28770000     -30.68310000     -71.26940000
C      -47.07870000     -34.30630000     -70.02260000
H      -47.95450000     -34.91860000     -70.34080000
H      -47.18140000     -33.31570000     -70.59010000
C      -43.33040000     -32.10840000     -72.41180000
H      -42.71900000     -32.00750000     -73.35690000
H      -44.38540000     -32.24110000     -72.71280000
C      -42.87890000     -33.43640000     -71.76270000
H      -41.73280000     -33.45670000     -71.57890000
H      -43.35070000     -33.74030000     -70.84590000
C      -45.80270000     -35.13030000     -70.34910000
H      -45.89660000     -36.07820000     -69.80170000
H      -44.90400000     -34.72630000     -69.88260000
C      -45.68840000     -35.47490000     -71.88750000
C      -46.59920000     -36.37560000     -72.40930000
C      -44.56450000     -35.26240000     -72.79780000
H      -47.48000000     -36.81590000     -72.03140000
C      -44.72270000     -35.90790000     -74.00820000
C      -43.29840000     -34.55920000     -72.74650000
C      -42.51280000     -34.71170000     -73.89550000
S      -46.26360000     -36.84440000     -74.06750000
S      -43.31690000     -35.70670000     -75.07840000
H      -41.46450000     -34.38450000     -74.15690000
