40
Properties=species:S:1:pos:R:3 #=T CELL(abcABC):=T 1.889726e+02=T 90.00000=T Traj:=T positionsangstrom=T Step:=T 0=T Bead:=T pbc="F F F"
C      -42.37290000     -34.86520000     -70.82740000
C      -43.29340000     -35.89540000     -70.81740000
C      -44.01260000     -36.25520000     -71.98410000
C      -43.79070000     -35.58200000     -73.13110000
C      -42.92900000     -34.47160000     -73.16710000
C      -42.16220000     -34.14010000     -72.01900000
H      -41.75100000     -34.58470000     -70.00580000
H      -44.68020000     -37.13150000     -71.84940000
H      -42.85370000     -34.00890000     -74.08800000
H      -41.34850000     -33.35910000     -72.13310000
C      -44.54560000     -35.81160000     -74.45180000
H      -44.68640000     -36.82830000     -74.58320000
H      -43.86570000     -35.48030000     -75.25080000
C      -43.49550000     -36.65450000     -69.57040000
H      -43.39040000     -37.71580000     -69.68440000
H      -42.86590000     -36.28340000     -68.68640000
S      -46.14440000     -35.04860000     -74.41950000
S      -45.27500000     -36.49510000     -68.91990000
C      -45.89720000     -33.31530000     -73.70780000
H      -45.02790000     -33.21970000     -73.08220000
H      -45.70250000     -32.66440000     -74.63920000
C      -45.44230000     -34.66530000     -68.77410000
H      -44.42080000     -34.19690000     -68.68490000
H      -45.86290000     -34.34020000     -67.80820000
C      -46.29360000     -34.01390000     -69.90800000
H      -45.94730000     -34.54190000     -70.85250000
H      -47.32490000     -34.21590000     -69.84440000
C      -47.16190000     -32.97070000     -72.89140000
H      -47.29880000     -33.74170000     -72.19430000
H      -48.01690000     -32.97400000     -73.63970000
C      -46.97400000     -31.63180000     -72.20440000
C      -47.29120000     -30.39290000     -72.68960000
C      -46.36810000     -31.58850000     -70.86320000
H      -47.85970000     -30.33750000     -73.60800000
C      -46.14550000     -30.19200000     -70.54570000
C      -46.00840000     -32.52820000     -69.88270000
C      -45.52190000     -31.88110000     -68.74200000
S      -46.66120000     -29.04400000     -71.77600000
S      -45.55800000     -30.16030000     -68.87620000
H      -45.33800000     -32.32370000     -67.74490000
