40
Properties=species:S:1:pos:R:3 #=T CELL(abcABC):=T 1.889726e+02=T 90.00000=T Traj:=T positionsangstrom=T Step:=T 0=T Bead:=T pbc="F F F"
C      -46.48860000     -29.24820000     -69.88660000
C      -45.25770000     -29.93080000     -69.81590000
C      -45.14720000     -31.11100000     -69.10860000
C      -46.27560000     -31.55380000     -68.32770000
C      -47.47860000     -30.83890000     -68.41810000
C      -47.56050000     -29.60770000     -69.11790000
H      -46.46920000     -28.28130000     -70.39090000
H      -44.20280000     -31.72790000     -69.10950000
H      -48.33900000     -31.28770000     -68.01760000
H      -48.44550000     -28.92030000     -69.09870000
C      -46.10070000     -32.77030000     -67.53580000
H      -46.33810000     -32.56780000     -66.45950000
H      -45.15730000     -33.15650000     -67.43870000
C      -44.12090000     -29.52020000     -70.72760000
H      -44.46010000     -28.91260000     -71.55840000
H      -43.53200000     -28.77450000     -70.19540000
S      -47.25450000     -34.13770000     -68.16080000
S      -42.88510000     -30.80820000     -71.23200000
C      -47.15430000     -33.94910000     -70.06740000
H      -48.06130000     -34.40080000     -70.41560000
H      -47.21810000     -32.89340000     -70.33220000
C      -43.82090000     -31.98630000     -72.29690000
H      -43.86820000     -31.71990000     -73.34460000
H      -44.82720000     -32.00590000     -71.87990000
C      -43.08290000     -33.27800000     -72.26870000
H      -42.10760000     -33.01440000     -72.49460000
H      -43.09850000     -33.73930000     -71.26060000
C      -45.80820000     -34.60410000     -70.50990000
H      -45.50000000     -35.25930000     -69.74390000
H      -45.05030000     -33.83730000     -70.56580000
C      -45.76440000     -35.30750000     -71.82030000
C      -46.70140000     -36.24660000     -72.11540000
C      -44.78690000     -35.22890000     -72.85190000
H      -47.52530000     -36.55260000     -71.52770000
C      -44.95460000     -36.21490000     -73.82420000
C      -43.70670000     -34.28960000     -73.25680000
C      -43.25850000     -34.54900000     -74.56200000
S      -46.31720000     -37.16580000     -73.56510000
S      -44.01240000     -36.02060000     -75.27180000
H      -42.37190000     -34.02540000     -74.89130000
