40
Properties=species:S:1:pos:R:3 #=T CELL(abcABC):=T 1.889726e+02=T 90.00000=T Traj:=T positionsangstrom=T Step:=T 0=T Bead:=T pbc="F F F"
C      -46.05620000     -29.10170000     -70.04020000
C      -44.89530000     -29.94450000     -69.98150000
C      -44.91310000     -31.10960000     -69.21280000
C      -46.14080000     -31.50050000     -68.55990000
C      -47.33230000     -30.76620000     -68.75010000
C      -47.27530000     -29.56290000     -69.39720000
H      -45.96960000     -28.23310000     -70.65460000
H      -43.95830000     -31.65960000     -69.01090000
H      -48.28050000     -31.23620000     -68.32210000
H      -48.21570000     -29.01650000     -69.63270000
C      -46.22160000     -32.70350000     -67.61360000
H      -46.42340000     -32.49450000     -66.60140000
H      -45.22690000     -33.28550000     -67.64680000
C      -43.72200000     -29.50520000     -70.80430000
H      -44.13490000     -28.84910000     -71.61140000
H      -43.07220000     -28.87200000     -70.15810000
S      -47.44920000     -34.01480000     -68.12760000
S      -42.59140000     -30.86410000     -71.33420000
C      -46.94800000     -34.30970000     -69.86080000
H      -47.73960000     -34.96550000     -70.20760000
H      -47.02870000     -33.37170000     -70.44010000
C      -43.78210000     -31.99130000     -72.13470000
H      -43.88480000     -31.61880000     -73.19650000
H      -44.75750000     -31.94580000     -71.57020000
C      -43.23610000     -33.40190000     -72.14270000
H      -42.08970000     -33.36060000     -72.35240000
H      -43.27520000     -33.85830000     -71.15840000
C      -45.55210000     -34.96690000     -70.20420000
H      -45.17910000     -35.69700000     -69.44500000
H      -44.81800000     -34.20740000     -70.18560000
C      -45.70140000     -35.57090000     -71.61380000
C      -46.62470000     -36.63490000     -71.85090000
C      -44.81760000     -35.32740000     -72.73010000
H      -47.45510000     -37.02880000     -71.13860000
C      -45.19010000     -36.11200000     -73.81200000
C      -43.85290000     -34.31380000     -73.15700000
C      -43.58030000     -34.40890000     -74.47980000
S      -46.55250000     -37.21020000     -73.49540000
S      -44.55790000     -35.59170000     -75.34740000
H      -42.75820000     -33.86330000     -74.99430000
