40
Properties=species:S:1:pos:R:3 #=T CELL(abcABC):=T 1.889726e+02=T 90.00000=T Traj:=T positionsangstrom=T Step:=T 0=T Bead:=T pbc="F F F"
C      -44.82490000     -32.67280000     -67.39070000
C      -45.01290000     -33.97780000     -67.88820000
C      -46.14410000     -34.27470000     -68.66200000
C      -47.28420000     -33.47490000     -68.68450000
C      -47.06170000     -32.17220000     -68.21610000
C      -45.88060000     -31.79440000     -67.62900000
H      -43.93140000     -32.24740000     -66.84770000
H      -46.14860000     -35.36910000     -69.02800000
H      -47.79660000     -31.39670000     -68.30520000
H      -45.82080000     -30.74690000     -67.32360000
C      -48.53300000     -33.97660000     -69.15920000
H      -49.25920000     -33.74160000     -68.39670000
H      -48.54920000     -35.17410000     -69.28060000
C      -43.97380000     -34.98050000     -67.68100000
H      -43.04830000     -34.47620000     -67.40950000
H      -44.16140000     -35.66920000     -66.84630000
S      -49.16440000     -33.21210000     -70.76510000
S      -43.54530000     -36.11790000     -69.09820000
C      -47.67220000     -33.41140000     -71.81970000
H      -47.19750000     -34.30360000     -71.41930000
H      -47.99710000     -33.72570000     -72.79820000
C      -43.00150000     -34.85010000     -70.35490000
H      -42.43380000     -35.43670000     -71.14330000
H      -42.31200000     -34.20480000     -69.95360000
C      -44.08620000     -34.09220000     -71.10090000
H      -45.08280000     -34.67640000     -71.16860000
H      -44.39380000     -33.14460000     -70.54060000
C      -46.73610000     -32.12080000     -71.94800000
H      -45.98470000     -31.99680000     -71.15100000
H      -47.35790000     -31.24710000     -71.95760000
C      -45.89480000     -32.21770000     -73.18650000
C      -46.34360000     -31.60360000     -74.30550000
C      -44.60300000     -32.81500000     -73.30570000
H      -47.31340000     -31.08230000     -74.39020000
C      -44.01910000     -32.48900000     -74.52500000
C      -43.71250000     -33.59110000     -72.49290000
C      -42.59960000     -33.99890000     -73.20580000
S      -45.16600000     -31.68310000     -75.63340000
S      -42.50130000     -33.32520000     -74.84150000
H      -41.73020000     -34.49060000     -72.74270000
