40
Properties=species:S:1:pos:R:3 #=T CELL(abcABC):=T 1.889726e+02=T 90.00000=T Traj:=T positionsangstrom=T Step:=T 0=T Bead:=T pbc="F F F"
C      -44.68630000     -32.61940000     -67.45190000
C      -44.99550000     -33.98100000     -67.76470000
C      -46.27210000     -34.36530000     -68.20320000
C      -47.20250000     -33.40850000     -68.55460000
C      -46.91240000     -32.11310000     -68.22020000
C      -45.69420000     -31.72480000     -67.64960000
H      -43.71030000     -32.35150000     -67.16740000
H      -46.42900000     -35.38150000     -68.63080000
H      -47.59980000     -31.24110000     -68.34510000
H      -45.51990000     -30.74470000     -67.35980000
C      -48.60340000     -33.91020000     -69.15600000
H      -49.42110000     -33.59670000     -68.53540000
H      -48.53100000     -34.95690000     -69.23880000
C      -43.79840000     -34.97840000     -67.73460000
H      -42.78110000     -34.52990000     -67.60590000
H      -43.82040000     -35.67670000     -66.83870000
S      -49.10680000     -33.15520000     -70.74930000
S      -43.68610000     -36.15880000     -69.13310000
C      -47.82600000     -33.43930000     -71.98110000
H      -47.34890000     -34.40800000     -71.94710000
H      -48.35030000     -33.29950000     -73.00880000
C      -43.12810000     -35.11720000     -70.53350000
H      -42.67590000     -35.82830000     -71.19750000
H      -42.25220000     -34.57580000     -70.07870000
C      -44.22990000     -34.34410000     -71.20300000
H      -44.96660000     -35.01460000     -71.48020000
H      -44.62050000     -33.70930000     -70.47320000
C      -46.77270000     -32.23640000     -71.92650000
H      -46.06330000     -32.37210000     -71.02580000
H      -47.20000000     -31.27740000     -71.71940000
C      -45.99620000     -32.27620000     -73.24460000
C      -46.28820000     -31.52420000     -74.35440000
C      -44.69200000     -32.88530000     -73.37990000
H      -46.98820000     -30.66830000     -74.46840000
C      -44.08970000     -32.60400000     -74.58030000
C      -43.69810000     -33.68340000     -72.47190000
C      -42.50260000     -33.82580000     -73.15030000
S      -45.11700000     -31.68110000     -75.64010000
S      -42.48630000     -33.12430000     -74.77730000
H      -41.57330000     -34.22940000     -72.75430000
