40
Properties=species:S:1:pos:R:3 #=T CELL(abcABC):=T 1.889726e+02=T 90.00000=T Traj:=T positionsangstrom=T Step:=T 0=T Bead:=T pbc="F F F"
C      -44.60340000     -32.49020000     -67.79300000
C      -44.81860000     -33.84710000     -68.04010000
C      -46.13500000     -34.21820000     -68.50160000
C      -47.19720000     -33.26860000     -68.61120000
C      -46.94000000     -31.92640000     -68.24620000
C      -45.58450000     -31.50270000     -67.97790000
H      -43.58160000     -32.17010000     -67.47060000
H      -46.35200000     -35.30810000     -68.69360000
H      -47.79260000     -31.32150000     -68.27380000
H      -45.38640000     -30.52460000     -67.62710000
C      -48.53010000     -33.76790000     -68.94170000
H      -49.24670000     -33.53980000     -68.12330000
H      -48.55470000     -34.79960000     -69.07160000
C      -43.69880000     -34.85760000     -67.85960000
H      -42.75640000     -34.27500000     -67.95140000
H      -43.76170000     -35.42290000     -66.88670000
S      -49.16870000     -32.94030000     -70.57180000
S      -43.76140000     -36.30850000     -69.05290000
C      -47.87070000     -33.29000000     -71.86820000
H      -47.54620000     -34.29440000     -71.63570000
H      -48.34400000     -33.43450000     -72.85140000
C      -43.30750000     -35.54360000     -70.74570000
H      -43.24960000     -36.40990000     -71.50980000
H      -42.26910000     -35.15290000     -70.57930000
C      -44.24680000     -34.43430000     -71.22460000
H      -45.29780000     -34.83290000     -71.49060000
H      -44.32430000     -33.60800000     -70.52780000
C      -46.72320000     -32.26220000     -71.83650000
H      -46.18690000     -32.24470000     -70.83270000
H      -47.20600000     -31.27970000     -71.85610000
C      -45.86470000     -32.31050000     -73.09180000
C      -46.36180000     -31.64720000     -74.16800000
C      -44.54040000     -32.87360000     -73.27540000
H      -47.26740000     -31.07100000     -74.23990000
C      -44.04060000     -32.52190000     -74.50760000
C      -43.77000000     -33.83470000     -72.55980000
C      -42.64950000     -34.20370000     -73.27000000
S      -45.07850000     -31.54710000     -75.44800000
S      -42.54150000     -33.39000000     -74.84740000
H      -41.85640000     -34.86860000     -72.90610000
