40
Properties=species:S:1:pos:R:3 #=T CELL(abcABC):=T 1.889726e+02=T 90.00000=T Traj:=T positionsangstrom=T Step:=T 0=T Bead:=T pbc="F F F"
C      -44.57660000     -32.43370000     -67.81400000
C      -44.83530000     -33.77750000     -68.06410000
C      -46.14640000     -34.17650000     -68.37540000
C      -47.12430000     -33.18930000     -68.56640000
C      -46.84000000     -31.83030000     -68.38710000
C      -45.55650000     -31.51240000     -67.82980000
H      -43.59980000     -32.27090000     -67.50220000
H      -46.36200000     -35.23450000     -68.50970000
H      -47.66530000     -31.17200000     -68.55120000
H      -45.39430000     -30.50370000     -67.76900000
C      -48.49870000     -33.73250000     -68.98970000
H      -49.27120000     -33.59230000     -68.16020000
H      -48.31290000     -34.82130000     -69.14780000
C      -43.70060000     -34.79930000     -68.01770000
H      -42.72730000     -34.30910000     -68.19600000
H      -43.56170000     -35.19000000     -67.03600000
S      -49.19150000     -33.05930000     -70.54170000
S      -43.79250000     -36.22840000     -69.16340000
C      -47.88560000     -33.44280000     -71.80990000
H      -47.52580000     -34.45450000     -71.48570000
H      -48.37990000     -33.48580000     -72.79730000
C      -43.10030000     -35.45410000     -70.61250000
H      -42.97480000     -36.10170000     -71.40530000
H      -42.13530000     -35.05050000     -70.43540000
C      -44.12430000     -34.37720000     -71.14010000
H      -45.10630000     -34.75180000     -71.01620000
H      -44.23530000     -33.48680000     -70.55000000
C      -46.72730000     -32.35220000     -71.80660000
H      -46.06640000     -32.56310000     -70.99020000
H      -47.25870000     -31.41490000     -71.69200000
C      -45.92010000     -32.25840000     -73.11140000
C      -46.15140000     -31.36530000     -74.12590000
C      -44.68630000     -33.02510000     -73.36410000
H      -46.97350000     -30.65270000     -74.18610000
C      -44.16470000     -32.68780000     -74.58880000
C      -43.84900000     -33.96810000     -72.55170000
C      -42.68580000     -34.26090000     -73.25510000
S      -45.14500000     -31.51920000     -75.45520000
S      -42.58380000     -33.45580000     -74.80840000
H      -41.94010000     -34.93260000     -72.84570000
