40
Properties=species:S:1:pos:R:3 #=T CELL(abcABC):=T 1.889726e+02=T 90.00000=T Traj:=T positionsangstrom=T Step:=T 0=T Bead:=T pbc="F F F"
C      -44.51920000     -32.47200000     -67.81880000
C      -44.76130000     -33.82630000     -68.00150000
C      -46.02920000     -34.29930000     -68.25320000
C      -47.06650000     -33.38260000     -68.56580000
C      -46.74770000     -31.98330000     -68.46510000
C      -45.50700000     -31.52530000     -68.09970000
H      -43.58910000     -31.96960000     -67.54410000
H      -46.27250000     -35.41000000     -68.22820000
H      -47.54190000     -31.24390000     -68.55890000
H      -45.48580000     -30.42450000     -67.94690000
C      -48.52800000     -33.85700000     -69.03440000
H      -49.24960000     -33.66850000     -68.19300000
H      -48.44690000     -34.95000000     -69.22340000
C      -43.57280000     -34.79820000     -67.74610000
H      -42.62330000     -34.21930000     -67.69820000
H      -43.76570000     -35.20610000     -66.75600000
S      -49.12930000     -32.98220000     -70.52650000
S      -43.42990000     -36.20240000     -68.96740000
C      -47.78860000     -33.36950000     -71.77060000
H      -47.39370000     -34.33530000     -71.61470000
H      -48.38680000     -33.43570000     -72.70140000
C      -43.06040000     -35.28120000     -70.53270000
H      -42.84900000     -36.17430000     -71.15820000
H      -42.26380000     -34.61080000     -70.43650000
C      -44.20300000     -34.35580000     -71.19260000
H      -45.10680000     -34.90760000     -71.23020000
H      -44.23380000     -33.58350000     -70.48370000
C      -46.78270000     -32.26680000     -71.78320000
H      -46.15390000     -32.35560000     -70.91860000
H      -47.25790000     -31.34940000     -71.61200000
C      -45.93550000     -32.13770000     -73.03380000
C      -46.32300000     -31.39550000     -74.07420000
C      -44.70850000     -32.83880000     -73.32660000
H      -47.18710000     -30.73460000     -74.10930000
C      -44.19790000     -32.57580000     -74.60490000
C      -43.95960000     -33.88510000     -72.60830000
C      -42.92210000     -34.40350000     -73.44920000
S      -45.32080000     -31.55440000     -75.58300000
S      -42.80130000     -33.52640000     -74.93240000
H      -42.21560000     -35.19880000     -73.16280000
