40
Properties=species:S:1:pos:R:3 #=T CELL(abcABC):=T 1.889726e+02=T 90.00000=T Traj:=T positionsangstrom=T Step:=T 0=T Bead:=T pbc="F F F"
C      -43.92980000     -36.32220000     -68.80250000
C      -44.65300000     -35.28280000     -68.32390000
C      -45.91590000     -35.11990000     -68.89700000
C      -46.44860000     -36.01700000     -69.85460000
C      -45.66810000     -37.07140000     -70.24330000
C      -44.37890000     -37.24100000     -69.73840000
H      -42.92920000     -36.39650000     -68.32600000
H      -46.58220000     -34.31060000     -68.53390000
H      -45.99600000     -37.86760000     -70.83740000
H      -43.71530000     -38.03290000     -70.11090000
C      -47.84430000     -35.89220000     -70.38920000
H      -48.27720000     -34.99530000     -70.15990000
H      -48.44450000     -36.63640000     -69.98960000
C      -44.36180000     -34.37910000     -67.12120000
H      -44.97050000     -34.69100000     -66.26830000
H      -43.31430000     -34.60110000     -66.88830000
S      -48.14680000     -35.99660000     -72.24900000
S      -44.71870000     -32.69820000     -67.62270000
C      -47.33380000     -34.39030000     -72.89740000
H      -47.66910000     -34.47940000     -73.89660000
H      -47.78500000     -33.54660000     -72.31750000
C      -44.32110000     -32.68170000     -69.49920000
H      -44.10790000     -33.62490000     -70.00850000
H      -43.37700000     -32.10160000     -69.47280000
C      -45.44030000     -31.92460000     -70.28300000
H      -46.23160000     -32.67230000     -70.42470000
H      -45.84390000     -31.12450000     -69.58180000
C      -45.82090000     -34.25620000     -72.86160000
H      -45.55410000     -35.06670000     -73.58700000
H      -45.43140000     -34.54310000     -71.88210000
C      -45.26920000     -32.98420000     -73.48020000
C      -44.93900000     -33.02470000     -74.81850000
C      -45.04050000     -31.74420000     -72.82630000
H      -45.01840000     -33.88750000     -75.59660000
C      -44.48680000     -30.80670000     -73.74880000
C      -44.96340000     -31.19290000     -71.47110000
C      -44.37340000     -29.96200000     -71.38370000
S      -44.25140000     -31.52800000     -75.33010000
S      -44.10740000     -29.23940000     -72.99010000
H      -44.47050000     -29.31240000     -70.51750000
