40
Properties=species:S:1:pos:R:3 #=T CELL(abcABC):=T 1.889726e+02=T 90.00000=T Traj:=T positionsangstrom=T Step:=T 0=T Bead:=T pbc="F F F"
C      -44.72500000     -32.35630000     -67.68060000
C      -44.85600000     -33.69590000     -67.94730000
C      -46.07090000     -34.26760000     -68.28550000
C      -47.16520000     -33.40760000     -68.54500000
C      -46.98200000     -32.02750000     -68.24450000
C      -45.80620000     -31.51070000     -67.81790000
H      -43.78950000     -31.97360000     -67.30320000
H      -46.23270000     -35.32190000     -68.25390000
H      -47.84610000     -31.35230000     -68.41330000
H      -45.63590000     -30.48430000     -67.50030000
C      -48.43950000     -34.02230000     -68.90700000
H      -49.21310000     -33.90130000     -68.07880000
H      -48.30650000     -35.10990000     -69.07830000
C      -43.62190000     -34.56540000     -67.78520000
H      -42.77720000     -33.86980000     -67.74800000
H      -43.63250000     -35.10170000     -66.82270000
S      -49.10970000     -33.14890000     -70.43040000
S      -43.30580000     -35.97330000     -69.10520000
C      -47.74480000     -33.39890000     -71.64530000
H      -47.19640000     -34.36060000     -71.62090000
H      -48.28980000     -33.36950000     -72.62870000
C      -42.88480000     -35.07210000     -70.67330000
H      -42.39280000     -35.79570000     -71.36590000
H      -42.08710000     -34.34010000     -70.42010000
C      -44.09000000     -34.42080000     -71.26270000
H      -44.84360000     -35.24070000     -71.13520000
H      -44.35920000     -33.54800000     -70.59690000
C      -46.72600000     -32.17300000     -71.66810000
H      -46.10730000     -32.28250000     -70.80180000
H      -47.30280000     -31.22200000     -71.53900000
C      -45.89060000     -32.13800000     -73.04510000
C      -46.33030000     -31.48360000     -74.14150000
C      -44.69470000     -32.98680000     -73.37650000
H      -47.07700000     -30.75220000     -74.12250000
C      -44.35290000     -32.71590000     -74.69610000
C      -43.86360000     -33.92830000     -72.65020000
C      -42.83570000     -34.37240000     -73.47600000
S      -45.20250000     -31.47760000     -75.52460000
S      -42.91150000     -33.72430000     -75.16900000
H      -42.19490000     -35.20160000     -73.25970000
