40
Properties=species:S:1:pos:R:3 #=T CELL(abcABC):=T 1.889726e+02=T 90.00000=T Traj:=T positionsangstrom=T Step:=T 0=T Bead:=T pbc="F F F"
C      -44.62880000     -32.23700000     -67.58790000
C      -44.70560000     -33.56630000     -67.91680000
C      -45.85780000     -34.13660000     -68.37450000
C      -47.03010000     -33.33570000     -68.56620000
C      -47.00080000     -32.04280000     -68.10520000
C      -45.81710000     -31.48090000     -67.59070000
H      -43.77170000     -31.71600000     -67.17950000
H      -45.92170000     -35.16790000     -68.73300000
H      -47.94190000     -31.43820000     -68.23170000
H      -45.78190000     -30.41760000     -67.28570000
C      -48.35710000     -33.98930000     -69.00640000
H      -49.10780000     -33.67060000     -68.27830000
H      -48.25960000     -35.04530000     -69.00890000
C      -43.50720000     -34.46840000     -67.81620000
H      -42.59850000     -33.91700000     -67.91350000
H      -43.45960000     -34.98190000     -66.84840000
S      -49.07090000     -33.30550000     -70.52730000
S      -43.39250000     -35.84510000     -68.94920000
C      -47.77840000     -33.55900000     -71.87260000
H      -47.24280000     -34.48740000     -71.85460000
H      -48.23920000     -33.48390000     -72.81890000
C      -42.92870000     -35.05970000     -70.59460000
H      -42.53420000     -35.88340000     -71.21290000
H      -42.10690000     -34.39400000     -70.46000000
C      -44.07440000     -34.42410000     -71.28230000
H      -45.01200000     -34.97320000     -71.32620000
H      -44.48370000     -33.57840000     -70.77920000
C      -46.77320000     -32.41720000     -71.72410000
H      -46.18090000     -32.68490000     -70.85830000
H      -47.20660000     -31.38960000     -71.60560000
C      -45.86830000     -32.20300000     -72.98060000
C      -46.22820000     -31.34600000     -73.95950000
C      -44.75390000     -33.05640000     -73.36920000
H      -47.08810000     -30.65040000     -73.85810000
C      -44.47250000     -32.82170000     -74.73330000
C      -43.93960000     -34.07350000     -72.76800000
C      -42.98250000     -34.45950000     -73.66510000
S      -45.23550000     -31.46070000     -75.45050000
S      -42.97650000     -33.66570000     -75.24250000
H      -42.18670000     -35.24990000     -73.55690000
