40
Properties=species:S:1:pos:R:3 #=T CELL(abcABC):=T 1.889726e+02=T 90.00000=T Traj:=T positionsangstrom=T Step:=T 0=T Bead:=T pbc="F F F"
C      -44.64820000     -31.91670000     -67.64280000
C      -44.42860000     -33.19840000     -68.16180000
C      -45.55750000     -33.93030000     -68.55110000
C      -46.94150000     -33.50730000     -68.38250000
C      -47.10470000     -32.24490000     -67.84230000
C      -45.96860000     -31.48880000     -67.48550000
H      -43.75140000     -31.38010000     -67.17150000
H      -45.24350000     -34.92080000     -68.91770000
H      -48.10850000     -31.85240000     -67.65880000
H      -46.14480000     -30.51290000     -67.01290000
C      -48.04470000     -34.40580000     -68.75460000
H      -48.71120000     -34.24240000     -67.86440000
H      -47.63560000     -35.38140000     -68.87430000
C      -43.01860000     -33.74450000     -68.14350000
H      -42.21900000     -33.06640000     -68.47430000
H      -42.76180000     -33.89840000     -67.12650000
S      -48.98560000     -33.93600000     -70.34130000
S      -42.81410000     -35.35030000     -69.00940000
C      -47.69520000     -33.87590000     -71.67000000
H      -47.01540000     -34.72810000     -71.51560000
H      -48.18010000     -34.11010000     -72.56720000
C      -42.82220000     -34.89390000     -70.76740000
H      -42.46420000     -35.77790000     -71.27170000
H      -42.06730000     -34.10510000     -70.81790000
C      -44.14730000     -34.43170000     -71.39040000
H      -44.87660000     -35.25260000     -71.35240000
H      -44.52810000     -33.61290000     -70.86030000
C      -47.02800000     -32.54690000     -71.72420000
H      -46.55750000     -32.34910000     -70.82660000
H      -47.76160000     -31.68770000     -71.67970000
C      -46.18330000     -32.34750000     -73.01740000
C      -46.77210000     -31.58480000     -74.03190000
C      -44.99180000     -33.06450000     -73.45220000
H      -47.73800000     -31.10910000     -74.07150000
C      -44.68230000     -32.86010000     -74.79820000
C      -44.01520000     -33.93790000     -72.80170000
C      -42.89370000     -34.18380000     -73.57390000
S      -45.78470000     -31.68820000     -75.52300000
S      -43.04660000     -33.51060000     -75.20340000
H      -41.91930000     -34.63910000     -73.37840000
