40
Properties=species:S:1:pos:R:3 #=T CELL(abcABC):=T 1.889726e+02=T 90.00000=T Traj:=T positionsangstrom=T Step:=T 0=T Bead:=T pbc="F F F"
C      -44.65160000     -31.99480000     -67.84780000
C      -44.42530000     -33.35900000     -68.11210000
C      -45.55580000     -34.18800000     -68.39510000
C      -46.80810000     -33.59990000     -68.39590000
C      -47.02570000     -32.25670000     -68.02500000
C      -45.93890000     -31.46130000     -67.80930000
H      -43.87720000     -31.32300000     -67.62470000
H      -45.40500000     -35.26080000     -68.58930000
H      -48.02120000     -31.98190000     -68.16960000
H      -46.12370000     -30.41940000     -67.48610000
C      -48.07450000     -34.43080000     -68.61600000
H      -48.83680000     -34.26280000     -67.86720000
H      -47.87330000     -35.51970000     -68.50650000
C      -42.97630000     -33.87360000     -68.05310000
H      -42.34620000     -33.10390000     -68.53940000
H      -42.50420000     -34.20140000     -67.06390000
S      -48.90040000     -34.18930000     -70.26440000
S      -42.79380000     -35.37400000     -69.15410000
C      -47.59480000     -34.20150000     -71.54380000
H      -46.90770000     -34.96730000     -71.31310000
H      -48.12650000     -34.47610000     -72.45980000
C      -42.75700000     -34.81580000     -70.88640000
H      -42.53640000     -35.73110000     -71.34650000
H      -41.94680000     -34.07500000     -71.12150000
C      -44.03840000     -34.27780000     -71.41330000
H      -44.79720000     -35.01890000     -71.29410000
H      -44.39070000     -33.45350000     -70.76100000
C      -46.98380000     -32.75700000     -71.55820000
H      -46.18040000     -32.64300000     -70.73340000
H      -47.74530000     -32.03330000     -71.30270000
C      -46.25270000     -32.39540000     -72.93150000
C      -46.91440000     -31.73770000     -73.96900000
C      -44.98530000     -32.89970000     -73.42240000
H      -47.85780000     -31.20440000     -73.89700000
C      -44.71080000     -32.56660000     -74.70620000
C      -43.98450000     -33.73390000     -72.82750000
C      -42.92280000     -33.88750000     -73.69060000
S      -45.85400000     -31.52860000     -75.36910000
S      -43.21390000     -33.23840000     -75.28070000
H      -42.11750000     -34.62490000     -73.50040000
