40
Properties=species:S:1:pos:R:3 #=T CELL(abcABC):=T 1.889726e+02=T 90.00000=T Traj:=T positionsangstrom=T Step:=T 0=T Bead:=T pbc="F F F"
C      -44.66590000     -32.26630000     -68.34410000
C      -44.49950000     -33.64850000     -68.15460000
C      -45.59550000     -34.46690000     -68.22800000
C      -46.86970000     -33.81610000     -68.34640000
C      -47.00090000     -32.43940000     -68.28270000
C      -45.87350000     -31.59930000     -68.29100000
H      -43.77670000     -31.58360000     -68.35710000
H      -45.49450000     -35.50690000     -68.19000000
H      -48.00390000     -31.89910000     -68.37500000
H      -45.94560000     -30.57440000     -68.48370000
C      -48.07840000     -34.69860000     -68.61990000
H      -48.92830000     -34.59670000     -67.88010000
H      -47.86030000     -35.77370000     -68.45290000
C      -43.04360000     -34.09780000     -68.15060000
H      -42.34560000     -33.30460000     -68.55890000
H      -42.78290000     -34.44840000     -67.12410000
S      -48.94870000     -34.30150000     -70.16450000
S      -42.74110000     -35.56200000     -69.27200000
C      -47.62270000     -33.96490000     -71.46910000
H      -46.88300000     -34.80300000     -71.48680000
H      -48.23250000     -33.99060000     -72.34890000
C      -42.58880000     -34.82160000     -70.92990000
H      -42.33480000     -35.59800000     -71.69550000
H      -41.78060000     -34.19060000     -71.07750000
C      -43.88460000     -34.16430000     -71.37530000
H      -44.60440000     -34.95490000     -71.24930000
H      -44.22990000     -33.35180000     -70.74870000
C      -46.87990000     -32.64090000     -71.37000000
H      -46.06980000     -32.70950000     -70.76770000
H      -47.56960000     -31.83910000     -70.90780000
C      -46.27750000     -32.29420000     -72.77260000
C      -46.94880000     -31.66350000     -73.78930000
C      -44.94460000     -32.69960000     -73.28350000
H      -47.97490000     -31.34820000     -73.65350000
C      -44.68170000     -32.26930000     -74.60570000
C      -43.87850000     -33.56630000     -72.75580000
C      -42.81010000     -33.62490000     -73.64630000
S      -46.08640000     -31.46470000     -75.34280000
S      -43.18740000     -32.88350000     -75.17330000
H      -41.81050000     -33.95640000     -73.37710000
