40
Properties=species:S:1:pos:R:3 #=T CELL(abcABC):=T 1.889726e+02=T 90.00000=T Traj:=T positionsangstrom=T Step:=T 0=T Bead:=T pbc="F F F"
C      -44.34380000     -32.43520000     -67.80740000
C      -44.24390000     -33.77620000     -68.16290000
C      -45.40690000     -34.50550000     -68.36710000
C      -46.69010000     -33.98080000     -68.27370000
C      -46.77030000     -32.64350000     -67.86640000
C      -45.60960000     -31.89680000     -67.69240000
H      -43.45650000     -31.84350000     -67.48880000
H      -45.33950000     -35.53580000     -68.59630000
H      -47.76830000     -32.16100000     -67.88650000
H      -45.71080000     -30.89780000     -67.42170000
C      -47.89320000     -34.82910000     -68.47160000
H      -48.66700000     -34.47320000     -67.84790000
H      -47.77600000     -35.86460000     -68.23950000
C      -42.94850000     -34.46620000     -68.15670000
H      -42.16410000     -33.74350000     -68.03350000
H      -42.73890000     -35.09230000     -67.35040000
S      -48.75020000     -34.53370000     -70.13620000
S      -42.61250000     -35.57580000     -69.61970000
C      -47.78140000     -34.30280000     -71.66660000
H      -46.97340000     -35.07870000     -71.65580000
H      -48.44710000     -34.48040000     -72.54490000
C      -42.62480000     -34.58760000     -71.15410000
H      -42.21490000     -35.21850000     -72.01330000
H      -42.00850000     -33.70080000     -71.11320000
C      -44.12220000     -34.21790000     -71.54420000
H      -44.61580000     -35.14160000     -71.79770000
H      -44.55210000     -33.65490000     -70.62910000
C      -47.28320000     -32.83610000     -71.75390000
H      -46.79970000     -32.54010000     -70.86100000
H      -48.29300000     -32.27170000     -71.70320000
C      -46.51270000     -32.38400000     -72.94780000
C      -47.18080000     -31.61880000     -73.85140000
C      -45.16740000     -32.63270000     -73.35850000
H      -48.19440000     -31.29700000     -73.83350000
C      -44.85640000     -32.03800000     -74.56680000
C      -44.05340000     -33.37280000     -72.82620000
C      -42.94520000     -33.30450000     -73.58040000
S      -46.23020000     -31.21840000     -75.25370000
S      -43.22690000     -32.40260000     -75.08760000
H      -42.02860000     -33.79930000     -73.48840000
