40
Properties=species:S:1:pos:R:3 #=T CELL(abcABC):=T 1.889726e+02=T 90.00000=T Traj:=T positionsangstrom=T Step:=T 0=T Bead:=T pbc="F F F"
C      -45.04510000     -36.16530000     -74.33900000
C      -45.80690000     -36.06610000     -73.15160000
C      -46.88580000     -35.20480000     -73.12660000
C      -47.25520000     -34.45850000     -74.22380000
C      -46.43820000     -34.61830000     -75.38100000
C      -45.36450000     -35.42880000     -75.49850000
H      -44.30900000     -36.92090000     -74.40830000
H      -47.61710000     -35.02800000     -72.34160000
H      -46.60960000     -33.94930000     -76.25580000
H      -44.68470000     -35.59980000     -76.37110000
C      -48.44910000     -33.44770000     -74.34430000
H      -49.34610000     -34.01580000     -74.57570000
H      -48.24820000     -32.81360000     -75.22130000
C      -45.35410000     -36.75390000     -71.88920000
H      -46.22450000     -37.02390000     -71.24810000
H      -44.90300000     -37.70000000     -72.30380000
S      -48.71280000     -32.46720000     -72.75660000
S      -44.04870000     -35.88370000     -70.88010000
C      -47.00820000     -31.94770000     -72.22800000
H      -46.20980000     -32.14450000     -73.06630000
H      -47.09400000     -30.86890000     -72.06220000
C      -42.95750000     -34.69500000     -71.84660000
H      -42.88730000     -35.12340000     -72.84060000
H      -41.94990000     -34.78240000     -71.35800000
C      -43.46930000     -33.24010000     -71.91470000
H      -42.94860000     -32.66600000     -72.68980000
H      -44.51820000     -33.23630000     -72.25330000
C      -46.73410000     -32.79080000     -70.91920000
H      -46.08120000     -33.59160000     -71.25010000
H      -47.68410000     -33.16880000     -70.49830000
C      -45.97270000     -32.03770000     -69.87350000
C      -46.52750000     -31.45860000     -68.76220000
C      -44.49470000     -32.11310000     -69.76940000
H      -47.60520000     -31.44860000     -68.48480000
C      -44.05660000     -31.56170000     -68.58070000
C      -43.39940000     -32.65130000     -70.50550000
C      -42.19020000     -32.46740000     -69.87150000
S      -45.31610000     -30.78520000     -67.63080000
S      -42.30060000     -31.67440000     -68.35770000
H      -41.26010000     -32.87880000     -70.32600000
