40
Properties=species:S:1:pos:R:3 #=T CELL(abcABC):=T 1.889726e+02=T 90.00000=T Traj:=T positionsangstrom=T Step:=T 0=T Bead:=T pbc="F F F"
C      -45.13680000     -36.22890000     -74.51750000
C      -45.80870000     -36.12630000     -73.33060000
C      -46.85630000     -35.17020000     -73.17570000
C      -47.13170000     -34.26650000     -74.20130000
C      -46.40410000     -34.37680000     -75.37760000
C      -45.49230000     -35.37400000     -75.55360000
H      -44.38780000     -36.95820000     -74.73650000
H      -47.31880000     -35.05980000     -72.20560000
H      -46.65230000     -33.56960000     -76.12160000
H      -44.98860000     -35.41200000     -76.53240000
C      -48.26380000     -33.27320000     -74.19750000
H      -49.25460000     -33.74810000     -74.45220000
H      -48.10470000     -32.48530000     -74.95330000
C      -45.36140000     -36.85380000     -72.10970000
H      -46.21850000     -36.98630000     -71.50330000
H      -44.84920000     -37.79990000     -72.34690000
S      -48.80200000     -32.50250000     -72.66670000
S      -44.28380000     -35.86680000     -70.97040000
C      -47.29170000     -31.99910000     -71.76670000
H      -46.48690000     -31.86760000     -72.51530000
H      -47.45890000     -31.06620000     -71.29700000
C      -43.24840000     -34.81870000     -72.06240000
H      -43.39290000     -35.18740000     -73.02280000
H      -42.21220000     -34.90580000     -71.81930000
C      -43.62440000     -33.34680000     -71.90110000
H      -42.99710000     -32.76450000     -72.59100000
H      -44.64010000     -33.12640000     -72.26280000
C      -46.81140000     -32.93440000     -70.68880000
H      -46.36460000     -33.83320000     -71.03810000
H      -47.67850000     -33.13350000     -70.09570000
C      -45.85400000     -32.30680000     -69.61850000
C      -46.40660000     -31.61710000     -68.51720000
C      -44.40340000     -32.18040000     -69.68250000
H      -47.46760000     -31.55800000     -68.19130000
C      -43.83180000     -31.46530000     -68.61130000
C      -43.41090000     -32.71270000     -70.52810000
C      -42.15860000     -32.32740000     -70.12440000
S      -45.15260000     -30.86750000     -67.50910000
S      -42.05900000     -31.50080000     -68.61680000
H      -41.23700000     -32.58450000     -70.59190000
