40
Properties=species:S:1:pos:R:3 #=T CELL(abcABC):=T 1.889726e+02=T 90.00000=T Traj:=T positionsangstrom=T Step:=T 0=T Bead:=T pbc="F F F"
C      -43.85550000     -34.29380000     -67.97370000
C      -43.89450000     -32.91960000     -68.20190000
C      -43.04080000     -32.42080000     -69.27310000
C      -42.41980000     -33.24670000     -70.19240000
C      -42.36700000     -34.64050000     -69.91560000
C      -43.12090000     -35.08890000     -68.83720000
H      -44.46460000     -34.66960000     -67.19290000
H      -43.05140000     -31.32200000     -69.49880000
H      -41.87160000     -35.25310000     -70.63150000
H      -42.91270000     -36.06100000     -68.47360000
C      -41.60940000     -32.78050000     -71.32690000
H      -40.77780000     -33.44390000     -71.44460000
H      -41.35940000     -31.74450000     -71.30120000
C      -44.60630000     -31.95910000     -67.34160000
H      -45.13370000     -32.53230000     -66.49740000
H      -43.97940000     -31.07280000     -67.11770000
S      -42.52590000     -32.93490000     -73.00020000
S      -46.28630000     -31.46030000     -68.23440000
C      -43.67270000     -31.47250000     -73.05090000
H      -43.20860000     -30.58920000     -72.50090000
H      -43.80760000     -31.21790000     -74.16500000
C      -46.51840000     -32.82350000     -69.43100000
H      -46.86680000     -33.72630000     -68.94620000
H      -45.50770000     -33.04990000     -69.81750000
C      -47.56940000     -32.34130000     -70.40470000
H      -48.49320000     -32.04700000     -69.80860000
H      -47.35440000     -31.40140000     -70.89530000
C      -45.06770000     -31.80720000     -72.49850000
H      -45.60320000     -30.84070000     -72.63270000
H      -45.04580000     -31.85610000     -71.39640000
C      -45.78140000     -32.99670000     -73.09050000
C      -45.25910000     -33.64500000     -74.18690000
C      -46.91950000     -33.64340000     -72.61000000
H      -44.37800000     -33.26760000     -74.66740000
C      -47.28630000     -34.71560000     -73.42790000
C      -47.88570000     -33.33750000     -71.48170000
C      -48.90310000     -34.28040000     -71.60340000
S      -46.13400000     -35.04760000     -74.68260000
S      -48.81330000     -35.39680000     -72.96050000
H      -49.73200000     -34.28510000     -70.95050000
