40
Properties=species:S:1:pos:R:3 #=T CELL(abcABC):=T 1.889726e+02=T 90.00000=T Traj:=T positionsangstrom=T Step:=T 0=T Bead:=T pbc="F F F"
C      -45.10560000     -36.10550000     -74.72790000
C      -45.81820000     -36.10700000     -73.50320000
C      -46.74690000     -35.10640000     -73.19590000
C      -47.10620000     -34.18470000     -74.16420000
C      -46.54070000     -34.30640000     -75.47100000
C      -45.58780000     -35.24370000     -75.72740000
H      -44.30230000     -36.85170000     -74.88740000
H      -47.16950000     -35.03620000     -72.20950000
H      -46.88090000     -33.65710000     -76.26310000
H      -44.99210000     -35.08010000     -76.62260000
C      -48.08730000     -33.06900000     -73.92920000
H      -49.11310000     -33.23790000     -74.37420000
H      -47.65150000     -32.13030000     -74.17040000
C      -45.30710000     -36.99030000     -72.31650000
H      -46.09330000     -37.62630000     -71.95620000
H      -44.47750000     -37.60360000     -72.63120000
S      -48.73670000     -32.96500000     -72.13820000
S      -44.89250000     -35.99160000     -70.86330000
C      -47.52020000     -31.91330000     -71.18440000
H      -46.73670000     -31.54790000     -71.86450000
H      -47.98820000     -31.06570000     -70.63710000
C      -43.39960000     -34.97540000     -71.51660000
H      -42.91250000     -35.64030000     -72.31160000
H      -42.77360000     -34.94570000     -70.65870000
C      -43.84800000     -33.58540000     -72.03440000
H      -43.22880000     -33.36540000     -72.86420000
H      -44.84630000     -33.65330000     -72.35030000
C      -46.81900000     -32.88040000     -70.19260000
H      -46.41640000     -33.61960000     -70.85460000
H      -47.59600000     -33.28500000     -69.53730000
C      -45.74320000     -32.19860000     -69.35360000
C      -46.02540000     -31.75140000     -68.09960000
C      -44.39740000     -32.07180000     -69.82400000
H      -46.96690000     -31.82780000     -67.59890000
C      -43.66430000     -31.37400000     -68.87920000
C      -43.61090000     -32.49350000     -70.99970000
C      -42.35090000     -32.01550000     -70.89420000
S      -44.58920000     -30.95920000     -67.41210000
S      -42.01070000     -31.19290000     -69.42180000
H      -41.55740000     -32.05350000     -71.59880000
