40
Properties=species:S:1:pos:R:3 #=T CELL(abcABC):=T 1.889726e+02=T 90.00000=T Traj:=T positionsangstrom=T Step:=T 0=T Bead:=T pbc="F F F"
C      -45.54430000     -36.04120000     -74.71940000
C      -45.86830000     -36.12450000     -73.33200000
C      -46.84220000     -35.30690000     -72.78340000
C      -47.60240000     -34.49570000     -73.61290000
C      -47.18720000     -34.32960000     -74.93530000
C      -46.16650000     -35.12050000     -75.48470000
H      -44.84950000     -36.75830000     -75.17350000
H      -47.01750000     -35.40540000     -71.74760000
H      -47.63540000     -33.55490000     -75.53330000
H      -45.76800000     -34.70980000     -76.38950000
C      -48.88530000     -33.85870000     -73.15320000
H      -49.68540000     -34.56210000     -73.10810000
H      -49.30720000     -33.07870000     -73.89300000
C      -45.16650000     -37.06900000     -72.41970000
H      -45.82000000     -37.82110000     -71.97850000
H      -44.47800000     -37.66640000     -72.98430000
S      -49.08960000     -33.19870000     -71.49470000
S      -44.14980000     -36.21850000     -71.06860000
C      -47.54190000     -32.16890000     -71.08810000
H      -46.85310000     -32.00760000     -71.95670000
H      -47.93120000     -31.15260000     -70.81010000
C      -43.23070000     -34.93310000     -71.95770000
H      -42.93890000     -35.28320000     -72.87830000
H      -42.35100000     -34.77250000     -71.45870000
C      -44.09570000     -33.64520000     -72.06810000
H      -44.21740000     -33.20120000     -73.05870000
H      -45.10550000     -33.77340000     -71.73770000
C      -46.77360000     -32.87600000     -69.89680000
H      -46.49790000     -33.86410000     -70.31370000
H      -47.46390000     -32.97740000     -69.01840000
C      -45.59190000     -32.07020000     -69.40530000
C      -45.76400000     -31.24270000     -68.34350000
C      -44.19760000     -32.11560000     -69.95130000
H      -46.70320000     -30.94670000     -67.82850000
C      -43.43490000     -31.21530000     -69.23120000
C      -43.58050000     -32.52990000     -71.13550000
C      -42.30020000     -32.01890000     -71.18250000
S      -44.25720000     -30.42270000     -67.92510000
S      -41.80570000     -30.92230000     -69.88570000
H      -41.60490000     -32.30830000     -72.02920000
