40
Properties=species:S:1:pos:R:3 #=T CELL(abcABC):=T 1.889726e+02=T 90.00000=T Traj:=T positionsangstrom=T Step:=T 0=T Bead:=T pbc="F F F"
C      -44.90860000     -30.06970000     -70.31060000
C      -43.62950000     -30.51410000     -70.44240000
C      -43.20460000     -31.52530000     -69.49620000
C      -43.99600000     -31.96920000     -68.39600000
C      -45.27690000     -31.26790000     -68.20520000
C      -45.65010000     -30.32760000     -69.13030000
H      -45.35890000     -29.51810000     -71.04800000
H      -42.19500000     -31.87750000     -69.68440000
H      -45.90410000     -31.49810000     -67.29300000
H      -46.66210000     -29.95720000     -68.94480000
C      -43.67850000     -33.12880000     -67.53270000
H      -44.40540000     -33.37630000     -66.75710000
H      -42.65740000     -33.08010000     -67.25190000
C      -42.84560000     -30.07450000     -71.62120000
H      -43.47660000     -29.30040000     -72.05260000
H      -41.87930000     -29.55970000     -71.31100000
S      -43.46000000     -34.65500000     -68.60580000
S      -42.52260000     -31.25750000     -72.99490000
C      -45.06480000     -35.18760000     -69.32680000
H      -45.53680000     -35.91340000     -68.66520000
H      -45.57110000     -34.27800000     -69.47240000
C      -44.17170000     -31.80340000     -73.47440000
H      -44.09930000     -31.86790000     -74.55680000
H      -44.80370000     -30.96810000     -73.31990000
C      -44.57970000     -33.12570000     -72.80250000
H      -43.85840000     -33.97600000     -72.92630000
H      -44.59950000     -32.98100000     -71.74900000
C      -44.87170000     -35.69880000     -70.78450000
H      -44.50070000     -36.72390000     -70.84730000
H      -44.21850000     -35.08490000     -71.32410000
C      -46.20030000     -35.74550000     -71.44770000
C      -47.13070000     -36.67510000     -71.14130000
C      -46.52550000     -34.85710000     -72.50150000
H      -47.03460000     -37.46540000     -70.35120000
C      -47.77210000     -35.18240000     -72.98630000
C      -45.93720000     -33.65940000     -73.13990000
C      -46.77400000     -33.12590000     -74.10300000
S      -48.52010000     -36.60220000     -72.20810000
S      -48.35100000     -33.95860000     -74.18570000
H      -46.52320000     -32.30330000     -74.71050000
