40
Properties=species:S:1:pos:R:3 #=T CELL(abcABC):=T 1.889726e+02=T 90.00000=T Traj:=T positionsangstrom=T Step:=T 0=T Bead:=T pbc="F F F"
C      -44.70670000     -29.72890000     -70.13710000
C      -43.50590000     -30.50770000     -70.39640000
C      -43.18440000     -31.53800000     -69.59970000
C      -44.11690000     -31.99330000     -68.57130000
C      -45.21960000     -31.23650000     -68.30510000
C      -45.50640000     -30.04460000     -69.05220000
H      -44.87550000     -28.86620000     -70.78740000
H      -42.27760000     -32.13300000     -69.86330000
H      -45.91230000     -31.55600000     -67.56390000
H      -46.43260000     -29.52810000     -68.80480000
C      -43.53650000     -33.15930000     -67.67900000
H      -44.14310000     -33.40140000     -66.78940000
H      -42.55210000     -32.87060000     -67.26930000
C      -42.58190000     -30.07120000     -71.51270000
H      -42.74110000     -29.04060000     -71.93770000
H      -41.54200000     -30.14090000     -71.21940000
S      -43.30850000     -34.69050000     -68.68710000
S      -42.65150000     -31.23330000     -72.97160000
C      -44.90750000     -34.87430000     -69.57050000
H      -45.76340000     -35.12220000     -68.93680000
H      -45.27050000     -33.89830000     -69.93310000
C      -44.39700000     -31.75010000     -73.22170000
H      -44.70480000     -31.77620000     -74.27060000
H      -45.15270000     -31.22320000     -72.57060000
C      -44.56120000     -33.26800000     -72.76830000
H      -43.76930000     -33.80980000     -73.27040000
H      -44.37900000     -33.31260000     -71.65960000
C      -44.84440000     -35.94470000     -70.74160000
H      -44.67960000     -36.93410000     -70.29030000
H      -43.85730000     -35.75600000     -71.29570000
C      -46.18790000     -35.98340000     -71.53100000
C      -47.13970000     -36.96940000     -71.38230000
C      -46.61210000     -34.96400000     -72.50280000
H      -47.21700000     -37.78690000     -70.68060000
C      -47.87240000     -35.20800000     -72.99700000
C      -46.03540000     -33.75590000     -73.12180000
C      -46.94000000     -33.10910000     -73.94830000
S      -48.65510000     -36.49890000     -72.17850000
S      -48.41190000     -34.00130000     -74.10380000
H      -46.80910000     -32.13260000     -74.48730000
