40
Properties=species:S:1:pos:R:3 #=T CELL(abcABC):=T 1.889726e+02=T 90.00000=T Traj:=T positionsangstrom=T Step:=T 0=T Bead:=T pbc="F F F"
C      -44.17630000     -29.47370000     -69.87600000
C      -43.22950000     -30.33650000     -70.45350000
C      -43.05520000     -31.55950000     -69.77300000
C      -43.70670000     -31.96700000     -68.65390000
C      -44.76950000     -31.19530000     -68.19960000
C      -45.05360000     -29.90730000     -68.83710000
H      -44.46510000     -28.58710000     -70.41090000
H      -42.49270000     -32.31960000     -70.25080000
H      -45.52550000     -31.60830000     -67.47750000
H      -45.88250000     -29.31930000     -68.48800000
C      -43.21740000     -33.24770000     -67.95220000
H      -43.81340000     -33.41820000     -67.03880000
H      -42.11220000     -33.20460000     -67.78090000
C      -42.47570000     -29.95570000     -71.71660000
H      -42.71130000     -28.95760000     -72.07490000
H      -41.39460000     -30.03450000     -71.59850000
S      -43.22460000     -34.81150000     -68.99220000
S      -42.87200000     -31.19820000     -73.09780000
C      -44.85480000     -34.83860000     -69.75320000
H      -45.65640000     -35.08690000     -69.02180000
H      -45.09010000     -33.85130000     -70.22240000
C      -44.51810000     -32.06180000     -72.50880000
H      -45.32160000     -31.37250000     -72.81990000
H      -44.45710000     -32.18660000     -71.44630000
C      -44.74770000     -33.41910000     -73.17990000
H      -44.48680000     -33.37230000     -74.29420000
H      -44.01870000     -34.13160000     -72.69940000
C      -44.93800000     -35.91920000     -70.88640000
H      -44.83400000     -36.97450000     -70.47470000
H      -44.10960000     -35.79280000     -71.59770000
C      -46.26420000     -35.94930000     -71.56460000
C      -47.18580000     -36.90440000     -71.23450000
C      -46.80000000     -34.99220000     -72.48990000
H      -47.21940000     -37.66790000     -70.49770000
C      -48.17760000     -35.15920000     -72.77320000
C      -46.20370000     -33.89270000     -73.17850000
C      -47.09980000     -33.11020000     -73.87590000
S      -48.78210000     -36.58070000     -72.00180000
S      -48.71810000     -33.88950000     -73.86770000
H      -46.83630000     -32.21420000     -74.42120000
