40
Properties=species:S:1:pos:R:3 #=T CELL(abcABC):=T 1.889726e+02=T 90.00000=T Traj:=T positionsangstrom=T Step:=T 0=T Bead:=T pbc="F F F"
C      -44.14130000     -29.57100000     -69.74530000
C      -43.30770000     -30.44870000     -70.49280000
C      -42.87130000     -31.60780000     -69.81070000
C      -43.28440000     -31.98430000     -68.49910000
C      -44.16960000     -31.06590000     -67.84340000
C      -44.54260000     -29.89010000     -68.42580000
H      -44.63550000     -28.72670000     -70.27430000
H      -42.24080000     -32.30260000     -70.40810000
H      -44.39900000     -31.40260000     -66.80180000
H      -45.27800000     -29.18160000     -67.97130000
C      -42.87960000     -33.32190000     -67.89670000
H      -43.45290000     -33.52340000     -66.93850000
H      -41.79800000     -33.13830000     -67.58590000
C      -42.81230000     -30.18960000     -71.87280000
H      -43.23120000     -29.26740000     -72.21700000
H      -41.71570000     -30.18650000     -71.83330000
S      -42.94540000     -34.63380000     -69.20440000
S      -42.98650000     -31.52880000     -73.15140000
C      -44.67400000     -34.71270000     -69.83500000
H      -45.19840000     -35.25150000     -68.98630000
H      -45.13510000     -33.69910000     -70.05740000
C      -44.58820000     -32.25950000     -72.80490000
H      -45.39370000     -31.51040000     -72.78080000
H      -44.66720000     -32.61090000     -71.79510000
C      -45.01850000     -33.38260000     -73.72740000
H      -44.94630000     -33.09430000     -74.80270000
H      -44.21730000     -34.15920000     -73.69800000
C      -44.84360000     -35.52850000     -71.15270000
H      -44.33360000     -36.51560000     -70.99460000
H      -44.31310000     -35.08670000     -71.97900000
C      -46.28880000     -35.74450000     -71.55290000
C      -47.20330000     -36.57050000     -70.93560000
C      -46.93190000     -34.91270000     -72.54340000
H      -46.98420000     -37.37570000     -70.26340000
C      -48.27370000     -35.11970000     -72.61910000
C      -46.42950000     -33.88370000     -73.45670000
C      -47.52200000     -33.27750000     -74.16610000
S      -48.85250000     -36.37290000     -71.55350000
S      -49.10090000     -34.11790000     -73.81850000
H      -47.54590000     -32.52730000     -74.95450000
