40
Properties=species:S:1:pos:R:3 #=T CELL(abcABC):=T 1.889726e+02=T 90.00000=T Traj:=T positionsangstrom=T Step:=T 0=T Bead:=T pbc="F F F"
C      -43.98540000     -29.59300000     -69.69140000
C      -43.37540000     -30.53280000     -70.53500000
C      -42.98680000     -31.78970000     -70.02630000
C      -43.26120000     -32.09730000     -68.64110000
C      -43.90990000     -31.15150000     -67.87760000
C      -44.24860000     -29.93830000     -68.40160000
H      -44.17730000     -28.58100000     -70.11840000
H      -42.55540000     -32.51460000     -70.75220000
H      -44.21440000     -31.43030000     -66.84020000
H      -44.68080000     -29.11200000     -67.76020000
C      -42.81090000     -33.42030000     -68.07270000
H      -43.51300000     -33.71480000     -67.34690000
H      -41.89050000     -33.34050000     -67.52600000
C      -43.00880000     -30.22610000     -71.93740000
H      -43.70830000     -29.46510000     -72.34220000
H      -42.00240000     -29.69790000     -71.98940000
S      -42.77400000     -34.79840000     -69.24960000
S      -42.97310000     -31.72670000     -72.97950000
C      -44.54790000     -34.57110000     -69.80780000
H      -45.23320000     -34.79760000     -69.07130000
H      -44.71520000     -33.55260000     -70.08660000
C      -44.84910000     -32.06900000     -72.90980000
H      -45.35850000     -31.13230000     -73.12540000
H      -45.06970000     -32.39320000     -71.86840000
C      -45.21980000     -33.17900000     -73.87140000
H      -45.28000000     -32.78970000     -74.90010000
H      -44.50650000     -34.03460000     -73.80410000
C      -44.87520000     -35.50870000     -71.01290000
H      -44.67170000     -36.53560000     -70.85400000
H      -44.15220000     -35.20870000     -71.78850000
C      -46.29350000     -35.41060000     -71.47470000
C      -47.11270000     -36.24690000     -70.73470000
C      -46.99960000     -34.58820000     -72.44570000
H      -46.79520000     -36.89500000     -69.89060000
C      -48.32090000     -35.03060000     -72.56260000
C      -46.62040000     -33.71140000     -73.53380000
C      -47.76080000     -33.40020000     -74.33480000
S      -48.71980000     -36.32680000     -71.43040000
S      -49.24110000     -34.22870000     -73.85360000
H      -47.78180000     -32.77270000     -75.26190000
