40
Properties=species:S:1:pos:R:3 #=T CELL(abcABC):=T 1.889726e+02=T 90.00000=T Traj:=T positionsangstrom=T Step:=T 0=T Bead:=T pbc="F F F"
C      -44.11990000     -34.43590000     -68.10040000
C      -44.00460000     -33.06390000     -68.23500000
C      -43.23650000     -32.54170000     -69.29400000
C      -42.47940000     -33.40210000     -70.11840000
C      -42.47890000     -34.75540000     -69.85050000
C      -43.25610000     -35.27060000     -68.83620000
H      -44.80990000     -34.90910000     -67.44280000
H      -43.31820000     -31.50090000     -69.58560000
H      -41.89590000     -35.48590000     -70.49800000
H      -43.36340000     -36.37100000     -68.74500000
C      -41.60350000     -32.77020000     -71.13600000
H      -40.57230000     -33.09680000     -71.07380000
H      -41.48410000     -31.69130000     -70.95860000
C      -44.87580000     -32.21850000     -67.33140000
H      -44.99930000     -32.86540000     -66.48580000
H      -44.36010000     -31.33580000     -66.96480000
S      -42.21160000     -32.96070000     -72.91320000
S      -46.42570000     -31.51810000     -68.07890000
C      -43.41770000     -31.53650000     -73.03420000
H      -42.88270000     -30.82200000     -72.50540000
H      -43.50980000     -31.27340000     -74.08260000
C      -46.91330000     -32.83860000     -69.26120000
H      -47.73250000     -33.45510000     -68.82870000
H      -46.06470000     -33.57610000     -69.41230000
C      -47.36430000     -32.15390000     -70.53800000
H      -48.25220000     -31.49670000     -70.27660000
H      -46.60730000     -31.53140000     -71.02450000
C      -44.81500000     -31.87970000     -72.39490000
H      -45.43430000     -30.96080000     -72.37470000
H      -44.66640000     -32.21630000     -71.39380000
C      -45.59010000     -32.97450000     -73.16770000
C      -45.18120000     -33.46540000     -74.35460000
C      -46.77350000     -33.61050000     -72.62440000
H      -44.27190000     -33.28050000     -75.03780000
C      -47.31580000     -34.59480000     -73.48660000
C      -47.71840000     -33.29030000     -71.60730000
C      -48.77820000     -34.13790000     -71.57520000
S      -46.27570000     -34.75920000     -74.95350000
S      -48.78090000     -35.35660000     -72.90640000
H      -49.68400000     -34.01840000     -70.89660000
