40
Properties=species:S:1:pos:R:3 #=T CELL(abcABC):=T 1.889726e+02=T 90.00000=T Traj:=T positionsangstrom=T Step:=T 0=T Bead:=T pbc="F F F"
C      -43.65450000     -29.83720000     -69.63070000
C      -43.04190000     -30.73490000     -70.56280000
C      -42.63690000     -31.99630000     -70.20630000
C      -42.63280000     -32.26600000     -68.78750000
C      -43.08310000     -31.32290000     -67.78660000
C      -43.56340000     -30.09100000     -68.24480000
H      -44.00730000     -28.86010000     -69.92770000
H      -42.36350000     -32.76700000     -70.88550000
H      -43.13730000     -31.62380000     -66.72710000
H      -43.83540000     -29.32550000     -67.59500000
C      -42.28070000     -33.61990000     -68.23720000
H      -42.87630000     -33.70240000     -67.28690000
H      -41.16490000     -33.79780000     -67.95600000
C      -42.96290000     -30.19100000     -71.95570000
H      -43.58980000     -29.26730000     -72.06670000
H      -41.95980000     -29.81300000     -72.25610000
S      -42.74080000     -35.06560000     -69.24590000
S      -43.41350000     -31.48250000     -73.30440000
C      -44.48920000     -34.56930000     -69.70420000
H      -45.11680000     -35.01020000     -68.89230000
H      -44.55710000     -33.41340000     -69.65500000
C      -45.19970000     -31.81780000     -72.87340000
H      -45.76470000     -31.00570000     -73.27330000
H      -45.36070000     -31.91600000     -71.79110000
C      -45.54460000     -33.06080000     -73.71770000
H      -45.43480000     -32.70920000     -74.71170000
H      -44.81310000     -33.82590000     -73.59430000
C      -44.98450000     -34.94600000     -71.14440000
H      -44.42750000     -35.85240000     -71.50610000
H      -44.58810000     -34.21660000     -71.78600000
C      -46.49580000     -35.14000000     -71.29200000
C      -47.24980000     -36.05210000     -70.59530000
C      -47.25480000     -34.50630000     -72.37100000
H      -46.82720000     -36.67040000     -69.81600000
C      -48.53510000     -35.01460000     -72.46050000
C      -46.91150000     -33.72250000     -73.54700000
C      -47.96840000     -33.58130000     -74.39520000
S      -48.90360000     -36.14550000     -71.14270000
S      -49.36430000     -34.42390000     -73.96600000
H      -47.98570000     -32.95370000     -75.23100000
