40
Properties=species:S:1:pos:R:3 #=T CELL(abcABC):=T 1.889726e+02=T 90.00000=T Traj:=T positionsangstrom=T Step:=T 0=T Bead:=T pbc="F F F"
C      -43.64080000     -29.85760000     -69.49870000
C      -43.23150000     -30.66760000     -70.56120000
C      -42.60000000     -31.90890000     -70.28490000
C      -42.60570000     -32.43200000     -69.02790000
C      -43.15110000     -31.67440000     -67.97180000
C      -43.70790000     -30.44330000     -68.20050000
H      -44.28110000     -28.99630000     -69.74090000
H      -42.33830000     -32.49770000     -71.15120000
H      -43.25010000     -32.09480000     -67.02760000
H      -44.07890000     -29.85230000     -67.31070000
C      -42.04510000     -33.78420000     -68.67810000
H      -42.31940000     -34.08380000     -67.70260000
H      -40.96990000     -33.82620000     -68.76870000
C      -43.12080000     -30.19890000     -71.96140000
H      -43.64220000     -29.30600000     -72.17390000
H      -42.04210000     -29.98980000     -72.10280000
S      -42.53390000     -35.13220000     -69.77620000
S      -43.58740000     -31.35120000     -73.38400000
C      -44.35630000     -35.29130000     -69.70970000
H      -44.65610000     -36.30730000     -69.26160000
H      -44.67340000     -34.44940000     -68.99090000
C      -45.22750000     -31.87560000     -72.89940000
H      -45.95790000     -31.06520000     -73.09760000
H      -45.39600000     -32.24240000     -71.83280000
C      -45.52390000     -32.98140000     -73.83110000
H      -45.65190000     -32.56730000     -74.80130000
H      -44.70520000     -33.68540000     -73.85540000
C      -44.96060000     -35.13410000     -71.07560000
H      -44.60270000     -35.95590000     -71.74900000
H      -44.53510000     -34.25910000     -71.59950000
C      -46.44830000     -35.06600000     -71.16670000
C      -47.26380000     -35.85630000     -70.39450000
C      -47.15370000     -34.52560000     -72.25680000
H      -46.90110000     -36.38540000     -69.52050000
C      -48.55300000     -34.78000000     -72.19180000
C      -46.82640000     -33.70860000     -73.49790000
C      -47.91950000     -33.57870000     -74.29400000
S      -48.95040000     -35.81100000     -70.87280000
S      -49.40100000     -34.22310000     -73.60420000
H      -48.03560000     -32.83340000     -75.08990000
