40
Properties=species:S:1:pos:R:3 #=T CELL(abcABC):=T 1.889726e+02=T 90.00000=T Traj:=T positionsangstrom=T Step:=T 0=T Bead:=T pbc="F F F"
C      -45.85510000     -36.27690000     -74.66780000
C      -45.62170000     -36.42840000     -73.23250000
C      -46.66720000     -36.06940000     -72.37370000
C      -47.80270000     -35.35370000     -72.81140000
C      -48.04650000     -35.27640000     -74.20450000
C      -47.03180000     -35.67390000     -75.11000000
H      -45.05310000     -36.63160000     -75.31110000
H      -46.52850000     -36.30090000     -71.35010000
H      -49.00310000     -34.75370000     -74.55820000
H      -47.20420000     -35.52190000     -76.11680000
C      -48.90240000     -35.13830000     -71.80090000
H      -49.37350000     -36.04110000     -71.48590000
H      -49.70640000     -34.66360000     -72.28560000
C      -44.34500000     -36.92580000     -72.67040000
H      -44.33330000     -38.02500000     -72.77650000
H      -43.53480000     -36.75800000     -73.39340000
S      -48.50300000     -34.42320000     -70.12580000
S      -43.98780000     -36.46090000     -70.88870000
C      -47.35300000     -32.95210000     -70.52510000
H      -46.84940000     -33.25130000     -71.49610000
H      -47.89180000     -32.07480000     -70.70020000
C      -43.52750000     -34.70010000     -70.77490000
H      -42.48470000     -34.54070000     -70.90760000
H      -43.53830000     -34.32440000     -69.76740000
C      -44.19530000     -33.66840000     -71.71990000
H      -43.98870000     -33.98510000     -72.70060000
H      -45.24360000     -33.68830000     -71.53190000
C      -46.28940000     -32.65010000     -69.43220000
H      -45.61310000     -33.53360000     -69.50850000
H      -46.89030000     -32.60030000     -68.39880000
C      -45.50790000     -31.43820000     -69.67560000
C      -45.64840000     -30.22000000     -69.05670000
C      -44.34310000     -31.34600000     -70.55550000
H      -46.46800000     -29.98610000     -68.42040000
C      -43.61410000     -30.16270000     -70.37930000
C      -43.70310000     -32.33730000     -71.41740000
C      -42.44430000     -31.87580000     -71.78720000
S      -44.41020000     -29.01480000     -69.35200000
S      -42.00080000     -30.19930000     -71.21810000
H      -41.86520000     -32.42050000     -72.53440000
