40
Properties=species:S:1:pos:R:3 #=T CELL(abcABC):=T 1.889726e+02=T 90.00000=T Traj:=T positionsangstrom=T Step:=T 0=T Bead:=T pbc="F F F"
C      -45.99980000     -35.96110000     -74.58260000
C      -45.72630000     -36.20310000     -73.19780000
C      -46.72600000     -35.88300000     -72.29150000
C      -47.92960000     -35.29750000     -72.70630000
C      -48.25110000     -35.23730000     -74.09640000
C      -47.26020000     -35.54290000     -74.98660000
H      -45.20490000     -36.17050000     -75.30800000
H      -46.52320000     -35.94150000     -71.22670000
H      -49.28570000     -34.97840000     -74.35940000
H      -47.53810000     -35.56260000     -76.06020000
C      -48.97260000     -34.90650000     -71.68410000
H      -49.64230000     -35.91770000     -71.66080000
H      -49.71100000     -34.11920000     -72.08700000
C      -44.41130000     -36.73720000     -72.84350000
H      -44.54550000     -37.79390000     -72.92300000
H      -43.69090000     -36.23620000     -73.46300000
S      -48.38530000     -34.44770000     -69.98890000
S      -43.89020000     -36.55480000     -71.07860000
C      -47.52940000     -32.90650000     -70.38510000
H      -47.28980000     -32.95530000     -71.47130000
H      -48.27500000     -32.04750000     -70.33070000
C      -43.06060000     -34.87310000     -71.02490000
H      -42.08170000     -35.19670000     -71.47810000
H      -43.00400000     -34.66630000     -69.90950000
C      -43.85100000     -33.85460000     -71.83730000
H      -43.87140000     -34.07770000     -72.90750000
H      -44.94320000     -33.94420000     -71.51920000
C      -46.38710000     -32.76190000     -69.44520000
H      -45.84810000     -33.63760000     -69.28070000
H      -46.85630000     -32.58150000     -68.47820000
C      -45.47410000     -31.51480000     -69.74280000
C      -45.75450000     -30.35660000     -69.08830000
C      -44.21270000     -31.50380000     -70.47170000
H      -46.63120000     -30.10790000     -68.52580000
C      -43.56270000     -30.30200000     -70.23230000
C      -43.47190000     -32.41140000     -71.38860000
C      -42.31810000     -31.80640000     -71.83640000
S      -44.51050000     -29.12400000     -69.45820000
S      -42.08840000     -30.16380000     -71.18600000
H      -41.48980000     -32.22150000     -72.42820000
