40
Properties=species:S:1:pos:R:3 #=T CELL(abcABC):=T 1.889726e+02=T 90.00000=T Traj:=T positionsangstrom=T Step:=T 0=T Bead:=T pbc="F F F"
C      -44.00680000     -34.58330000     -68.01650000
C      -44.12900000     -33.19660000     -68.21510000
C      -43.32650000     -32.64640000     -69.20150000
C      -42.52350000     -33.40470000     -70.08070000
C      -42.55830000     -34.79270000     -69.95390000
C      -43.39890000     -35.38360000     -68.99130000
H      -44.55710000     -35.16210000     -67.20520000
H      -43.39210000     -31.59150000     -69.25530000
H      -42.02780000     -35.49610000     -70.62510000
H      -43.35460000     -36.49060000     -68.90180000
C      -41.56530000     -32.72020000     -71.06520000
H      -40.61560000     -33.28200000     -71.07490000
H      -41.51740000     -31.65120000     -70.82220000
C      -44.90830000     -32.36150000     -67.21370000
H      -45.30300000     -33.02750000     -66.40930000
H      -44.41850000     -31.50640000     -66.80120000
S      -42.09890000     -32.96620000     -72.79350000
S      -46.44680000     -31.60380000     -67.95610000
C      -43.30270000     -31.59250000     -73.07070000
H      -42.98650000     -30.60810000     -72.58950000
H      -43.24240000     -31.42350000     -74.13900000
C      -46.96550000     -32.83930000     -69.15340000
H      -47.63240000     -33.54890000     -68.53300000
H      -46.10610000     -33.37560000     -69.44390000
C      -47.65470000     -32.25010000     -70.40980000
H      -48.70060000     -31.87570000     -70.19450000
H      -47.10360000     -31.38540000     -70.60760000
C      -44.74270000     -31.81960000     -72.57530000
H      -45.31480000     -30.88530000     -72.77900000
H      -44.76260000     -31.88990000     -71.47400000
C      -45.48840000     -32.86560000     -73.29010000
C      -45.16780000     -33.50720000     -74.43440000
C      -46.79020000     -33.39290000     -72.69210000
H      -44.26140000     -33.28450000     -75.00310000
C      -47.26590000     -34.38690000     -73.54130000
C      -47.64960000     -33.28910000     -71.53780000
C      -48.74200000     -34.08880000     -71.68680000
S      -46.26850000     -34.77940000     -74.96690000
S      -48.75130000     -35.15570000     -73.08990000
H      -49.54750000     -34.09700000     -70.99190000
