40
Properties=species:S:1:pos:R:3 #=T CELL(abcABC):=T 1.889726e+02=T 90.00000=T Traj:=T positionsangstrom=T Step:=T 0=T Bead:=T pbc="F F F"
C      -46.06360000     -35.05120000     -74.37260000
C      -45.90670000     -35.91620000     -73.28610000
C      -46.93420000     -35.99120000     -72.34150000
C      -48.14140000     -35.30580000     -72.48890000
C      -48.31130000     -34.52670000     -73.63300000
C      -47.28600000     -34.38570000     -74.60460000
H      -45.27020000     -35.00770000     -75.14760000
H      -46.71890000     -36.57510000     -71.45590000
H      -49.20590000     -33.95780000     -73.79840000
H      -47.54070000     -33.72270000     -75.45350000
C      -49.14500000     -35.30420000     -71.32870000
H      -49.40400000     -36.33570000     -71.14580000
H      -50.10870000     -34.84020000     -71.63770000
C      -44.64690000     -36.81560000     -72.95830000
H      -44.85260000     -37.90070000     -73.03590000
H      -43.82630000     -36.65500000     -73.73760000
S      -48.36420000     -34.64120000     -69.75070000
S      -43.82560000     -36.62020000     -71.30580000
C      -47.31140000     -33.21760000     -70.33340000
H      -47.09910000     -33.32510000     -71.40120000
H      -47.83880000     -32.24960000     -70.25140000
C      -43.15490000     -35.01630000     -71.10530000
H      -42.00180000     -34.94900000     -71.27030000
H      -43.30310000     -34.71330000     -70.04500000
C      -43.80530000     -33.89330000     -71.89270000
H      -43.75850000     -34.13850000     -72.97350000
H      -44.84410000     -33.94490000     -71.80930000
C      -46.04780000     -33.09150000     -69.48850000
H      -45.51100000     -34.01800000     -69.62360000
H      -46.37210000     -33.11740000     -68.43060000
C      -45.23250000     -31.84790000     -69.65030000
C      -45.62650000     -30.70630000     -69.01690000
C      -44.10570000     -31.65800000     -70.60510000
H      -46.33770000     -30.54890000     -68.26330000
C      -43.55900000     -30.38050000     -70.41530000
C      -43.24510000     -32.41170000     -71.49580000
C      -42.23760000     -31.65030000     -72.07610000
S      -44.51360000     -29.33000000     -69.42480000
S      -42.25260000     -30.03760000     -71.54540000
H      -41.48820000     -31.98660000     -72.83210000
