40
Properties=species:S:1:pos:R:3 #=T CELL(abcABC):=T 1.889726e+02=T 90.00000=T Traj:=T positionsangstrom=T Step:=T 0=T Bead:=T pbc="F F F"
C      -46.05090000     -35.09550000     -74.28080000
C      -45.93970000     -35.99800000     -73.24560000
C      -47.04310000     -36.21350000     -72.42530000
C      -48.14660000     -35.32990000     -72.39380000
C      -48.20250000     -34.36210000     -73.40150000
C      -47.18260000     -34.26380000     -74.33370000
H      -45.24800000     -34.88010000     -75.00060000
H      -46.98310000     -36.94450000     -71.67100000
H      -48.99500000     -33.58570000     -73.31710000
H      -47.15970000     -33.48580000     -75.06600000
C      -49.08110000     -35.31680000     -71.25840000
H      -49.47940000     -36.32170000     -71.05150000
H      -49.86600000     -34.57490000     -71.26740000
C      -44.53710000     -36.62450000     -73.10690000
H      -44.54220000     -37.58760000     -73.49300000
H      -43.81990000     -36.04810000     -73.69530000
S      -48.21410000     -34.86750000     -69.69880000
S      -44.02220000     -36.55170000     -71.34250000
C      -47.30700000     -33.22820000     -70.17210000
H      -47.02470000     -33.21700000     -71.24000000
H      -48.00890000     -32.43560000     -69.93190000
C      -43.18660000     -34.84220000     -71.13460000
H      -42.12210000     -34.87840000     -71.18380000
H      -43.34100000     -34.68110000     -70.09050000
C      -43.76110000     -33.82480000     -72.13540000
H      -43.07470000     -33.99010000     -73.00410000
H      -44.80820000     -33.92780000     -72.31760000
C      -46.02760000     -33.07010000     -69.39010000
H      -45.32310000     -33.83650000     -69.70910000
H      -46.13710000     -33.10270000     -68.31390000
C      -45.26520000     -31.81680000     -69.71710000
C      -45.41480000     -30.70040000     -68.98860000
C      -44.22650000     -31.60730000     -70.71540000
H      -46.16030000     -30.51480000     -68.22900000
C      -43.59970000     -30.37500000     -70.53280000
C      -43.52130000     -32.38480000     -71.73490000
C      -42.46390000     -31.70850000     -72.35090000
S      -44.40190000     -29.35940000     -69.31320000
S      -42.29660000     -30.05850000     -71.61060000
H      -41.72320000     -32.21060000     -73.01320000
