40
Properties=species:S:1:pos:R:3 #=T CELL(abcABC):=T 1.889726e+02=T 90.00000=T Traj:=T positionsangstrom=T Step:=T 0=T Bead:=T pbc="F F F"
C      -46.61220000     -36.46020000     -74.00520000
C      -46.08810000     -36.65940000     -72.70930000
C      -46.81860000     -36.30130000     -71.58770000
C      -47.90540000     -35.44410000     -71.74750000
C      -48.34620000     -35.05770000     -73.05470000
C      -47.66430000     -35.56360000     -74.20440000
H      -46.17150000     -36.97770000     -74.85360000
H      -46.34140000     -36.50040000     -70.58160000
H      -49.04230000     -34.24330000     -73.10750000
H      -47.89070000     -35.26980000     -75.20990000
C      -48.69490000     -34.92900000     -70.57310000
H      -49.38630000     -35.61060000     -70.17020000
H      -49.30120000     -34.04870000     -70.75930000
C      -44.70320000     -37.29480000     -72.59290000
H      -44.63650000     -38.18910000     -72.02720000
H      -44.21490000     -37.48550000     -73.59320000
S      -47.67030000     -34.61370000     -68.99100000
S      -43.49890000     -36.18210000     -71.67580000
C      -47.02250000     -32.90430000     -69.54450000
H      -47.00550000     -32.79370000     -70.62890000
H      -47.78480000     -32.13610000     -69.24970000
C      -43.71040000     -34.66360000     -72.65140000
H      -43.86020000     -34.80700000     -73.68040000
H      -42.76460000     -34.08270000     -72.64150000
C      -44.79580000     -33.68930000     -72.11080000
H      -45.66550000     -33.75560000     -72.72390000
H      -45.06970000     -33.97680000     -71.09380000
C      -45.68600000     -32.67940000     -68.89270000
H      -45.22710000     -33.66390000     -69.15360000
H      -45.77870000     -32.63490000     -67.81660000
C      -44.87210000     -31.53080000     -69.40620000
C      -44.57350000     -30.37340000     -68.71050000
C      -44.39880000     -31.41570000     -70.81520000
H      -44.63580000     -30.17730000     -67.61370000
C      -43.76510000     -30.18330000     -71.08390000
C      -44.39430000     -32.20100000     -72.07790000
C      -43.61890000     -31.61480000     -73.04580000
S      -43.59640000     -29.16190000     -69.67510000
S      -43.01680000     -29.98930000     -72.64390000
H      -43.36880000     -31.92820000     -74.05710000
