40
Properties=species:S:1:pos:R:3 #=T CELL(abcABC):=T 1.889726e+02=T 90.00000=T Traj:=T positionsangstrom=T Step:=T 0=T Bead:=T pbc="F F F"
C      -43.16410000     -30.00650000     -71.06390000
C      -42.63570000     -31.08150000     -71.77880000
C      -42.26310000     -32.30520000     -71.19910000
C      -42.38360000     -32.40630000     -69.78700000
C      -42.92090000     -31.27910000     -69.03120000
C      -43.31540000     -30.14610000     -69.67790000
H      -43.48420000     -29.15600000     -71.53440000
H      -41.83960000     -33.07170000     -71.86400000
H      -43.06020000     -31.37080000     -67.97700000
H      -43.59140000     -29.19910000     -69.08450000
C      -41.77320000     -33.57830000     -69.13440000
H      -41.91050000     -33.61160000     -68.05760000
H      -40.76030000     -33.59600000     -69.40960000
C      -42.52460000     -30.94780000     -73.23720000
H      -42.59690000     -29.98980000     -73.63480000
H      -41.56940000     -31.33580000     -73.51420000
S      -42.36850000     -35.25550000     -69.66500000
S      -43.67450000     -32.06060000     -74.18550000
C      -44.23450000     -35.08740000     -69.51630000
H      -44.56130000     -36.13940000     -69.18290000
H      -44.37860000     -34.32230000     -68.79590000
C      -45.40340000     -32.06800000     -73.36100000
H      -46.00080000     -31.24110000     -73.74100000
H      -45.22820000     -31.86720000     -72.29460000
C      -46.04790000     -33.42200000     -73.62750000
H      -46.30920000     -33.55040000     -74.73950000
H      -45.41140000     -34.31360000     -73.38460000
C      -45.03400000     -34.58220000     -70.73540000
H      -44.78170000     -35.27910000     -71.63740000
H      -44.68420000     -33.66350000     -71.12350000
C      -46.52500000     -34.69650000     -70.53690000
C      -47.16010000     -35.35890000     -69.52220000
C      -47.47040000     -34.28820000     -71.55140000
H      -46.71800000     -35.72260000     -68.58740000
C      -48.77870000     -34.55420000     -71.23690000
C      -47.36210000     -33.62800000     -72.88060000
C      -48.57810000     -33.41540000     -73.41130000
S      -48.88610000     -35.45900000     -69.69330000
S      -49.90260000     -34.07890000     -72.44760000
H      -48.79810000     -33.13360000     -74.44510000
