40
Properties=species:S:1:pos:R:3 #=T CELL(abcABC):=T 1.889726e+02=T 90.00000=T Traj:=T positionsangstrom=T Step:=T 0=T Bead:=T pbc="F F F"
C      -46.75650000     -35.84250000     -73.62330000
C      -46.19280000     -36.34850000     -72.39850000
C      -46.96520000     -36.17520000     -71.18570000
C      -48.21860000     -35.53700000     -71.23690000
C      -48.74470000     -35.08210000     -72.42950000
C      -48.01600000     -35.27450000     -73.63290000
H      -46.26910000     -36.01970000     -74.55960000
H      -46.48510000     -36.50330000     -70.24030000
H      -49.70340000     -34.58090000     -72.54150000
H      -48.35240000     -34.79580000     -74.56490000
C      -48.97150000     -35.38090000     -69.90920000
H      -49.13520000     -36.38590000     -69.47480000
H      -49.92400000     -34.86710000     -70.07070000
C      -44.87710000     -37.20530000     -72.39370000
H      -44.98820000     -38.11150000     -71.82370000
H      -44.74290000     -37.60140000     -73.37180000
S      -47.81490000     -34.41250000     -68.77090000
S      -43.34470000     -36.41240000     -71.75630000
C      -46.91440000     -33.13100000     -69.88360000
H      -46.85350000     -33.62100000     -70.86710000
H      -47.61530000     -32.27100000     -69.98780000
C      -43.16600000     -34.72620000     -72.54100000
H      -43.11880000     -34.80590000     -73.62180000
H      -42.14120000     -34.41780000     -72.18750000
C      -44.26470000     -33.77070000     -72.12430000
H      -45.17540000     -34.07280000     -72.62640000
H      -44.47190000     -34.00070000     -70.97970000
C      -45.53640000     -32.72890000     -69.27420000
H      -44.83010000     -33.64510000     -69.26040000
H      -45.70090000     -32.42140000     -68.26820000
C      -44.83160000     -31.51860000     -69.86160000
C      -44.84370000     -30.32860000     -69.11830000
C      -44.25410000     -31.35470000     -71.17380000
H      -45.21720000     -30.13680000     -68.11670000
C      -43.72270000     -30.12670000     -71.43120000
C      -43.94570000     -32.28120000     -72.25390000
C      -43.17950000     -31.76730000     -73.25220000
S      -43.93010000     -29.14610000     -69.98700000
S      -42.81550000     -30.05200000     -72.95060000
H      -42.72060000     -32.20180000     -74.14530000
