40
Properties=species:S:1:pos:R:3 #=T CELL(abcABC):=T 1.889726e+02=T 90.00000=T Traj:=T positionsangstrom=T Step:=T 0=T Bead:=T pbc="F F F"
C      -43.88150000     -30.36320000     -71.18810000
C      -43.11190000     -31.18610000     -72.02730000
C      -42.44090000     -32.23820000     -71.37510000
C      -42.31120000     -32.26790000     -69.98470000
C      -42.87670000     -31.26640000     -69.18790000
C      -43.66380000     -30.31340000     -69.82830000
H      -44.48930000     -29.51050000     -71.70260000
H      -41.91080000     -33.08100000     -71.91570000
H      -42.79180000     -31.28410000     -68.13050000
H      -44.12660000     -29.57120000     -69.19450000
C      -41.48260000     -33.46010000     -69.49230000
H      -41.18840000     -33.32970000     -68.38560000
H      -40.55160000     -33.51000000     -70.02020000
C      -43.06910000     -30.94250000     -73.55100000
H      -43.49660000     -29.84700000     -73.71650000
H      -42.02910000     -31.07090000     -73.89700000
S      -42.24450000     -35.05280000     -69.70870000
S      -44.11480000     -32.08750000     -74.53720000
C      -44.01410000     -34.81920000     -69.45900000
H      -44.33200000     -35.47780000     -68.57480000
H      -44.15420000     -33.78920000     -69.32080000
C      -45.40930000     -32.62470000     -73.29950000
H      -46.24910000     -31.91550000     -73.24370000
H      -45.02530000     -32.62070000     -72.23720000
C      -45.87740000     -34.08410000     -73.66330000
H      -45.94800000     -34.24320000     -74.74830000
H      -45.08500000     -34.69400000     -73.35570000
C      -44.89120000     -35.38540000     -70.65910000
H      -44.76920000     -36.48610000     -70.63350000
H      -44.54790000     -34.99570000     -71.60570000
C      -46.36040000     -34.94990000     -70.44830000
C      -46.95790000     -34.99060000     -69.18930000
C      -47.25650000     -34.42580000     -71.39620000
H      -46.55230000     -35.28310000     -68.21940000
C      -48.59200000     -34.30320000     -70.92040000
C      -47.14420000     -34.19560000     -72.84320000
C      -48.37900000     -33.99960000     -73.44300000
S      -48.66130000     -34.63860000     -69.22790000
S      -49.75340000     -33.83750000     -72.25600000
H      -48.54380000     -33.90020000     -74.48050000
