40
Properties=species:S:1:pos:R:3 #=T CELL(abcABC):=T 1.889726e+02=T 90.00000=T Traj:=T positionsangstrom=T Step:=T 0=T Bead:=T pbc="F F F"
C      -47.01860000     -35.78770000     -73.69540000
C      -46.21820000     -36.43630000     -72.70690000
C      -46.73630000     -36.41170000     -71.36800000
C      -47.85190000     -35.59890000     -71.00630000
C      -48.61670000     -34.94370000     -72.00720000
C      -48.15220000     -35.07270000     -73.32660000
H      -46.69220000     -35.85300000     -74.74710000
H      -46.35420000     -36.95570000     -70.51160000
H      -49.35790000     -34.17420000     -71.71080000
H      -48.66050000     -34.40700000     -74.10660000
C      -48.27940000     -35.49120000     -69.58270000
H      -48.25740000     -36.49330000     -69.13480000
H      -49.26690000     -35.00190000     -69.43660000
C      -44.92360000     -37.06890000     -73.10810000
H      -44.98800000     -38.19020000     -73.38150000
H      -44.63390000     -36.58000000     -74.07810000
S      -46.98200000     -34.52730000     -68.68100000
S      -43.61120000     -36.79670000     -71.86870000
C      -46.82880000     -32.93910000     -69.71210000
H      -46.64770000     -33.11760000     -70.81320000
H      -47.76910000     -32.37630000     -69.63980000
C      -43.10800000     -34.97430000     -72.05210000
H      -42.99980000     -34.76920000     -73.13250000
H      -42.10480000     -34.92270000     -71.73880000
C      -43.99490000     -33.92830000     -71.38360000
H      -45.04060000     -34.28620000     -71.49720000
H      -43.85970000     -34.05240000     -70.31920000
C      -45.79120000     -32.07270000     -69.03390000
H      -45.01300000     -32.63790000     -68.55440000
H      -46.17390000     -31.48910000     -68.23940000
C      -45.15140000     -31.12320000     -69.89820000
C      -45.18930000     -29.75600000     -69.54120000
C      -44.27380000     -31.37990000     -71.00620000
H      -45.70830000     -29.36640000     -68.69380000
C      -43.80600000     -30.18110000     -71.52730000
C      -43.90650000     -32.50560000     -71.80930000
C      -43.32760000     -32.10310000     -72.97520000
S      -44.20760000     -28.75630000     -70.62930000
S      -43.22190000     -30.34010000     -73.13020000
H      -42.88790000     -32.74340000     -73.74670000
