40
Properties=species:S:1:pos:R:3 #=T CELL(abcABC):=T 1.889726e+02=T 90.00000=T Traj:=T positionsangstrom=T Step:=T 0=T Bead:=T pbc="F F F"
C      -46.81520000     -35.81080000     -73.73950000
C      -46.03230000     -36.36990000     -72.68620000
C      -46.48420000     -36.17710000     -71.34570000
C      -47.69870000     -35.57480000     -71.11180000
C      -48.50400000     -34.96110000     -72.14580000
C      -48.01820000     -35.12310000     -73.41380000
H      -46.52410000     -35.99860000     -74.78020000
H      -45.97610000     -36.70170000     -70.55490000
H      -49.36360000     -34.34350000     -71.85150000
H      -48.64090000     -34.64990000     -74.20310000
C      -48.23210000     -35.46370000     -69.62140000
H      -48.15080000     -36.42490000     -69.19330000
H      -49.25760000     -35.10520000     -69.67710000
C      -44.76840000     -37.04890000     -73.15260000
H      -44.93200000     -38.15540000     -73.19590000
H      -44.43070000     -36.68680000     -74.06260000
S      -47.22070000     -34.36200000     -68.42550000
S      -43.41830000     -36.81510000     -71.90480000
C      -46.88350000     -32.75240000     -69.24360000
H      -46.92450000     -32.87950000     -70.33370000
H      -47.70710000     -32.07990000     -68.98280000
C      -43.18420000     -34.98230000     -71.90860000
H      -43.32700000     -34.64010000     -72.99200000
H      -42.17410000     -34.74880000     -71.71330000
C      -44.12890000     -34.01010000     -71.18090000
H      -45.17710000     -34.30310000     -71.40390000
H      -44.13330000     -34.11940000     -70.12630000
C      -45.55870000     -32.10520000     -68.83090000
H      -44.67910000     -32.73590000     -68.57630000
H      -45.72690000     -31.57040000     -67.91030000
C      -45.11600000     -31.07700000     -69.78140000
C      -45.23290000     -29.69590000     -69.63260000
C      -44.47270000     -31.43310000     -71.07350000
H      -45.65810000     -29.23580000     -68.79920000
C      -44.22330000     -30.30710000     -71.83490000
C      -43.84910000     -32.59310000     -71.68070000
C      -43.25910000     -32.26550000     -72.86470000
S      -44.47990000     -28.72510000     -70.98510000
S      -43.19530000     -30.52980000     -73.22470000
H      -42.85040000     -32.94680000     -73.64230000
