40
Properties=species:S:1:pos:R:3 #=T CELL(abcABC):=T 1.889726e+02=T 90.00000=T Traj:=T positionsangstrom=T Step:=T 0=T Bead:=T pbc="F F F"
C      -47.73070000     -34.12110000     -74.71320000
C      -47.72100000     -33.10940000     -73.72390000
C      -48.08520000     -33.44880000     -72.45460000
C      -48.51070000     -34.71970000     -72.03230000
C      -48.63880000     -35.67030000     -73.04700000
C      -48.24140000     -35.36150000     -74.37280000
H      -47.48810000     -33.82030000     -75.76720000
H      -48.20560000     -32.67340000     -71.68600000
H      -49.10900000     -36.64560000     -72.76210000
H      -48.28730000     -36.17760000     -75.05890000
C      -48.92100000     -34.87070000     -70.61110000
H      -49.92050000     -35.38610000     -70.59100000
H      -48.97410000     -33.94020000     -70.08030000
C      -47.22450000     -31.81540000     -74.02080000
H      -47.87110000     -31.20970000     -74.72130000
H      -47.29420000     -31.29200000     -73.09170000
S      -47.68500000     -35.88690000     -69.70850000
S      -45.49910000     -31.75980000     -74.66520000
C      -45.98580000     -35.65320000     -70.40210000
H      -45.33450000     -36.20450000     -69.76870000
H      -45.88590000     -36.04330000     -71.45230000
C      -44.29820000     -32.00330000     -73.20860000
H      -43.27510000     -31.66810000     -73.58090000
H      -44.07750000     -33.09380000     -73.14480000
C      -44.80220000     -31.38170000     -71.93070000
H      -44.94810000     -30.32260000     -72.14900000
H      -45.76490000     -31.81790000     -71.63270000
C      -45.57340000     -34.16660000     -70.29940000
H      -46.28440000     -33.63890000     -69.59390000
H      -45.63450000     -33.80570000     -71.37940000
C      -44.16260000     -33.95550000     -69.77070000
C      -43.53770000     -34.80430000     -68.87650000
C      -43.50600000     -32.73910000     -69.99940000
H      -43.88460000     -35.84310000     -68.58440000
C      -42.32310000     -32.66090000     -69.29870000
C      -43.76270000     -31.54520000     -70.79380000
C      -42.78650000     -30.57060000     -70.64480000
S      -42.02360000     -34.03870000     -68.32670000
S      -41.55750000     -31.12250000     -69.54100000
H      -42.75190000     -29.57080000     -71.07420000
