40
Properties=species:S:1:pos:R:3 #=T CELL(abcABC):=T 1.889726e+02=T 90.00000=T Traj:=T positionsangstrom=T Step:=T 0=T Bead:=T pbc="F F F"
C      -47.69140000     -34.22400000     -74.59840000
C      -47.68910000     -33.20430000     -73.68740000
C      -48.21750000     -33.44930000     -72.43880000
C      -48.62670000     -34.68440000     -72.02660000
C      -48.75510000     -35.70200000     -73.03700000
C      -48.14930000     -35.48650000     -74.31290000
H      -47.23970000     -33.90330000     -75.56670000
H      -48.20500000     -32.75190000     -71.58340000
H      -49.11490000     -36.75240000     -72.79590000
H      -48.20960000     -36.27810000     -75.02800000
C      -49.06050000     -35.01120000     -70.52630000
H      -50.01960000     -35.61030000     -70.60080000
H      -49.15800000     -34.06140000     -70.00360000
C      -47.23440000     -31.79420000     -74.10100000
H      -47.70630000     -31.52320000     -75.05410000
H      -47.58850000     -31.10220000     -73.38150000
S      -47.68350000     -36.12590000     -69.86800000
S      -45.41030000     -31.63690000     -74.54310000
C      -46.09010000     -35.63580000     -70.69250000
H      -45.32410000     -36.32980000     -70.38750000
H      -46.20880000     -35.78370000     -71.77890000
C      -44.45980000     -32.04160000     -73.03360000
H      -43.42070000     -31.87340000     -73.22700000
H      -44.76290000     -33.03210000     -72.85420000
C      -44.75650000     -31.19290000     -71.76420000
H      -44.74290000     -30.12790000     -71.99630000
H      -45.78050000     -31.32780000     -71.38750000
C      -45.58530000     -34.16450000     -70.44560000
H      -46.19070000     -33.64910000     -69.75710000
H      -45.80060000     -33.55010000     -71.33290000
C      -44.15680000     -33.95620000     -69.91960000
C      -43.43750000     -34.76970000     -69.10090000
C      -43.46790000     -32.67130000     -70.08560000
H      -43.66450000     -35.84140000     -68.90950000
C      -42.24640000     -32.67300000     -69.40570000
C      -43.72490000     -31.39550000     -70.75260000
C      -42.82030000     -30.43750000     -70.41780000
S      -41.98900000     -34.08210000     -68.45210000
S      -41.52120000     -31.00590000     -69.30690000
H      -42.71850000     -29.52160000     -71.00000000
