40
Properties=species:S:1:pos:R:3 #=T CELL(abcABC):=T 1.889726e+02=T 90.00000=T Traj:=T positionsangstrom=T Step:=T 0=T Bead:=T pbc="F F F"
C      -47.99380000     -33.42940000     -74.95490000
C      -48.00940000     -32.54680000     -73.78260000
C      -48.18410000     -33.15020000     -72.51220000
C      -48.24800000     -34.52090000     -72.35800000
C      -48.07040000     -35.39360000     -73.52120000
C      -47.94830000     -34.80350000     -74.78390000
H      -48.01290000     -33.01750000     -75.96340000
H      -48.15140000     -32.57000000     -71.57710000
H      -48.08320000     -36.47130000     -73.35040000
H      -47.97360000     -35.50400000     -75.60350000
C      -48.48560000     -35.15500000     -70.96460000
H      -49.51660000     -35.44520000     -70.77940000
H      -48.27180000     -34.33810000     -70.24860000
C      -47.61780000     -31.14680000     -73.88200000
H      -47.90250000     -30.70030000     -74.82110000
H      -48.05700000     -30.55240000     -73.02470000
S      -47.46300000     -36.62080000     -70.56450000
S      -45.83960000     -30.81700000     -74.06160000
C      -45.72820000     -36.03960000     -70.49860000
H      -45.29370000     -36.62980000     -69.70650000
H      -45.06480000     -36.15110000     -71.34250000
C      -44.98700000     -31.85730000     -72.77850000
H      -43.96530000     -31.80970000     -73.01660000
H      -45.34140000     -32.83720000     -72.89160000
C      -45.15580000     -31.36840000     -71.29710000
H      -45.22490000     -30.31160000     -71.24250000
H      -45.98400000     -31.80620000     -70.78200000
C      -45.58790000     -34.56020000     -69.92250000
H      -46.17250000     -34.42440000     -68.97000000
H      -45.87870000     -33.83630000     -70.65940000
C      -44.14840000     -34.25300000     -69.56440000
C      -43.36120000     -35.06340000     -68.80080000
C      -43.52920000     -32.93670000     -69.80870000
H      -43.69830000     -36.06730000     -68.43750000
C      -42.24390000     -32.89630000     -69.28250000
C      -43.93280000     -31.72040000     -70.49780000
C      -42.93540000     -30.77000000     -70.39020000
S      -41.80230000     -34.43210000     -68.45690000
S      -41.50770000     -31.33270000     -69.47120000
H      -43.02210000     -29.86860000     -70.90020000
