40
Properties=species:S:1:pos:R:3 #=T CELL(abcABC):=T 1.889726e+02=T 90.00000=T Traj:=T positionsangstrom=T Step:=T 0=T Bead:=T pbc="F F F"
C      -48.17850000     -32.74620000     -74.85620000
C      -48.03440000     -32.41080000     -73.48060000
C      -48.07380000     -33.43690000     -72.51520000
C      -48.31520000     -34.80340000     -72.88750000
C      -48.31260000     -35.12020000     -74.22200000
C      -48.33230000     -34.12290000     -75.22960000
H      -48.30480000     -31.99160000     -75.65890000
H      -47.85260000     -33.31120000     -71.47480000
H      -48.39980000     -36.15260000     -74.50890000
H      -48.51920000     -34.33650000     -76.28810000
C      -48.46940000     -35.95040000     -71.86170000
H      -48.99460000     -36.83900000     -72.25400000
H      -49.10270000     -35.59600000     -70.99390000
C      -47.81370000     -31.09340000     -72.90930000
H      -48.63690000     -30.47740000     -73.23250000
H      -47.88740000     -31.20890000     -71.83260000
S      -46.85860000     -36.67350000     -71.14640000
S      -46.12790000     -30.37930000     -73.44880000
C      -45.75460000     -35.25730000     -71.23140000
H      -44.81840000     -35.69340000     -71.43900000
H      -46.04510000     -34.59370000     -72.03150000
C      -45.05520000     -31.57990000     -72.57760000
H      -44.07830000     -31.39030000     -72.85130000
H      -45.30080000     -32.66610000     -72.80060000
C      -44.97810000     -31.45720000     -70.98340000
H      -45.16430000     -30.40260000     -70.75920000
H      -45.76630000     -31.90240000     -70.42050000
C      -45.78680000     -34.42350000     -69.87640000
H      -46.34980000     -35.05040000     -69.13410000
H      -46.41240000     -33.52640000     -70.02030000
C      -44.34090000     -34.18780000     -69.37680000
C      -43.73700000     -35.04010000     -68.54850000
C      -43.51550000     -33.04610000     -69.64550000
H      -44.01450000     -36.07740000     -68.28010000
C      -42.24660000     -33.10580000     -69.08430000
C      -43.67900000     -31.87930000     -70.38980000
C      -42.46740000     -31.18090000     -70.49680000
S      -42.03660000     -34.59040000     -68.20160000
S      -41.16790000     -31.87660000     -69.49230000
H      -42.36620000     -30.20560000     -70.95510000
