40
Properties=species:S:1:pos:R:3 #=T CELL(abcABC):=T 1.889726e+02=T 90.00000=T Traj:=T positionsangstrom=T Step:=T 0=T Bead:=T pbc="F F F"
C      -47.20380000     -36.97890000     -72.69580000
C      -46.21600000     -36.91080000     -71.68160000
C      -46.57210000     -36.43460000     -70.44600000
C      -47.75570000     -35.72870000     -70.24950000
C      -48.70300000     -35.65570000     -71.27890000
C      -48.39260000     -36.35060000     -72.43660000
H      -47.07710000     -37.41880000     -73.64150000
H      -45.87140000     -36.41140000     -69.61290000
H      -49.64940000     -35.17830000     -71.02670000
H      -49.21220000     -36.26700000     -73.12840000
C      -48.16090000     -35.16530000     -68.87920000
H      -48.26710000     -36.00210000     -68.22390000
H      -49.20610000     -34.74790000     -68.94500000
C      -44.83490000     -37.46010000     -71.84000000
H      -44.60590000     -38.49830000     -71.45880000
H      -44.73800000     -37.50960000     -72.94510000
S      -47.03890000     -33.88070000     -68.22270000
S      -43.48210000     -36.28530000     -71.27380000
C      -46.60070000     -32.71630000     -69.60170000
H      -46.78680000     -33.26010000     -70.60990000
H      -47.39340000     -31.96020000     -69.62530000
C      -43.79800000     -34.77210000     -72.13850000
H      -44.78030000     -34.46570000     -71.75860000
H      -43.71910000     -35.00060000     -73.30390000
C      -42.78020000     -33.63090000     -71.73050000
H      -42.75690000     -33.69200000     -70.66470000
H      -41.69180000     -33.75900000     -72.04370000
C      -45.16300000     -32.25170000     -69.59580000
H      -44.43230000     -33.08410000     -69.68620000
H      -44.78470000     -31.82850000     -68.62550000
C      -45.03190000     -31.17650000     -70.59920000
C      -45.63570000     -29.92070000     -70.53910000
C      -44.12040000     -31.25930000     -71.71690000
H      -46.37610000     -29.60420000     -69.84110000
C      -44.15580000     -30.13370000     -72.45830000
C      -43.20750000     -32.24510000     -72.26610000
C      -42.76260000     -31.82650000     -73.49300000
S      -45.10980000     -28.86820000     -71.78550000
S      -43.27160000     -30.20880000     -73.94660000
H      -41.85440000     -32.31010000     -74.03830000
