40
Properties=species:S:1:pos:R:3 #=T CELL(abcABC):=T 1.889726e+02=T 90.00000=T Traj:=T positionsangstrom=T Step:=T 0=T Bead:=T pbc="F F F"
C      -47.01580000     -36.52430000     -72.57930000
C      -46.23890000     -36.69850000     -71.45530000
C      -46.63980000     -36.13380000     -70.18400000
C      -47.93350000     -35.58530000     -70.13090000
C      -48.73160000     -35.48740000     -71.24700000
C      -48.26530000     -35.96360000     -72.43420000
H      -46.75730000     -37.08220000     -73.55050000
H      -46.08520000     -36.24800000     -69.22280000
H      -49.77170000     -35.19170000     -71.14800000
H      -48.94480000     -36.01350000     -73.27580000
C      -48.36640000     -35.04900000     -68.76670000
H      -48.51210000     -35.79750000     -68.01910000
H      -49.31560000     -34.52150000     -68.85220000
C      -44.83490000     -37.39330000     -71.69300000
H      -44.83390000     -38.10080000     -70.85140000
H      -44.82400000     -37.92840000     -72.66720000
S      -46.98060000     -33.90030000     -68.04250000
S      -43.30970000     -36.33810000     -71.34500000
C      -46.75350000     -32.63860000     -69.40140000
H      -47.37160000     -32.96510000     -70.21710000
H      -47.16360000     -31.69260000     -68.93690000
C      -43.78940000     -34.84710000     -72.29390000
H      -44.90190000     -34.49100000     -72.16860000
H      -43.61320000     -35.03430000     -73.37610000
C      -42.86600000     -33.71740000     -71.80350000
H      -43.00420000     -33.63090000     -70.64430000
H      -41.80460000     -33.95190000     -71.99340000
C      -45.32450000     -32.47310000     -69.72980000
H      -44.91610000     -33.37170000     -70.25040000
H      -44.66870000     -32.22920000     -68.86080000
C      -45.13260000     -31.40910000     -70.81120000
C      -45.83810000     -30.22010000     -70.72460000
C      -44.20250000     -31.42930000     -71.92220000
H      -46.63940000     -29.99520000     -69.98360000
C      -44.24710000     -30.25030000     -72.73100000
C      -43.17430000     -32.31880000     -72.35150000
C      -42.43870000     -31.78250000     -73.40490000
S      -45.37490000     -29.12080000     -72.00740000
S      -42.92460000     -30.15930000     -73.86230000
H      -41.70740000     -32.27680000     -74.03960000
