40
Properties=species:S:1:pos:R:3 #=T CELL(abcABC):=T 1.889726e+02=T 90.00000=T Traj:=T positionsangstrom=T Step:=T 0=T Bead:=T pbc="F F F"
C      -43.16560000     -30.48430000     -72.78130000
C      -42.91650000     -31.71890000     -73.33860000
C      -42.45050000     -32.79330000     -72.56210000
C      -42.07620000     -32.56360000     -71.20890000
C      -42.43460000     -31.25550000     -70.60300000
C      -42.83530000     -30.21870000     -71.41690000
H      -43.41960000     -29.72020000     -73.55880000
H      -42.28390000     -33.73470000     -72.99050000
H      -42.25720000     -31.06940000     -69.58850000
H      -43.11230000     -29.25890000     -71.00610000
C      -41.39970000     -33.66030000     -70.37930000
H      -41.20690000     -33.19430000     -69.44130000
H      -40.49780000     -34.06400000     -70.78170000
C      -43.24010000     -32.04660000     -74.78800000
H      -43.68700000     -31.13750000     -75.36390000
H      -42.39680000     -32.45750000     -75.46340000
S      -42.44420000     -35.29300000     -70.20500000
S      -44.38300000     -33.53560000     -74.72430000
C      -44.00470000     -34.56830000     -69.57940000
H      -43.90070000     -34.58840000     -68.52100000
H      -44.22480000     -33.56030000     -69.90440000
C      -45.53930000     -33.12010000     -73.17190000
H      -45.97810000     -32.13600000     -73.39800000
H      -44.97600000     -33.14040000     -72.24640000
C      -46.58650000     -34.27080000     -73.13400000
H      -47.15700000     -34.23590000     -74.12610000
H      -46.12360000     -35.27340000     -72.95810000
C      -45.18630000     -35.47550000     -69.94820000
H      -45.20810000     -36.46470000     -69.44620000
H      -45.08020000     -35.69320000     -70.99660000
C      -46.53760000     -34.87680000     -69.68580000
C      -46.90780000     -34.70820000     -68.36160000
C      -47.35750000     -34.07900000     -70.66230000
H      -46.45090000     -35.28230000     -67.59830000
C      -48.43060000     -33.54400000     -69.94930000
C      -47.55610000     -33.86140000     -72.06630000
C      -48.68890000     -33.18370000     -72.36950000
S      -48.42760000     -33.74310000     -68.17270000
S      -49.63190000     -32.70940000     -70.88100000
H      -49.08110000     -32.96570000     -73.30400000
