40
Properties=species:S:1:pos:R:3 #=T CELL(abcABC):=T 1.889726e+02=T 90.00000=T Traj:=T positionsangstrom=T Step:=T 0=T Bead:=T pbc="F F F"
C      -46.75230000     -36.15610000     -73.21840000
C      -45.93620000     -36.44990000     -72.12360000
C      -46.43570000     -36.09120000     -70.80380000
C      -47.68300000     -35.55090000     -70.54210000
C      -48.42790000     -35.18130000     -71.65220000
C      -47.98780000     -35.45400000     -72.93340000
H      -46.42960000     -36.35590000     -74.23960000
H      -45.79490000     -36.38890000     -69.95270000
H      -49.45380000     -34.86170000     -71.50230000
H      -48.70220000     -35.24000000     -73.64260000
C      -48.24130000     -35.37920000     -69.21030000
H      -48.31380000     -36.35570000     -68.67070000
H      -49.30030000     -34.97610000     -69.17170000
C      -44.59420000     -37.03580000     -72.23290000
H      -44.49940000     -38.07420000     -71.87650000
H      -44.25660000     -37.04950000     -73.25930000
S      -47.10710000     -34.25620000     -68.16930000
S      -43.36980000     -36.17180000     -71.05100000
C      -47.20060000     -32.80600000     -69.26680000
H      -47.84640000     -33.09180000     -70.07660000
H      -47.56430000     -31.90340000     -68.74030000
C      -43.32660000     -34.49920000     -71.74200000
H      -44.27660000     -34.19910000     -72.11560000
H      -42.76860000     -34.41630000     -72.73250000
C      -42.71120000     -33.43910000     -70.93940000
H      -43.15720000     -33.44090000     -69.94750000
H      -41.60940000     -33.56630000     -70.95280000
C      -45.73770000     -32.59150000     -69.71460000
H      -45.44450000     -33.56680000     -70.14580000
H      -45.18580000     -32.51900000     -68.75160000
C      -45.39990000     -31.43040000     -70.64360000
C      -46.34540000     -30.47510000     -71.03960000
C      -44.24440000     -31.41960000     -71.44900000
H      -47.14630000     -30.15600000     -70.41150000
C      -44.30060000     -30.42420000     -72.46490000
C      -43.00680000     -32.14500000     -71.56380000
C      -42.20060000     -31.56930000     -72.46140000
S      -45.72030000     -29.58420000     -72.45690000
S      -42.92270000     -30.26390000     -73.42850000
H      -41.24050000     -31.99230000     -72.67100000
