40
Properties=species:S:1:pos:R:3 #=T CELL(abcABC):=T 1.889726e+02=T 90.00000=T Traj:=T positionsangstrom=T Step:=T 0=T Bead:=T pbc="F F F"
C      -47.88030000     -31.92030000     -74.48860000
C      -48.03900000     -31.99550000     -73.13640000
C      -48.32540000     -33.23110000     -72.53830000
C      -48.36690000     -34.38480000     -73.27730000
C      -48.08890000     -34.33760000     -74.66400000
C      -47.83300000     -33.09780000     -75.18380000
H      -47.83470000     -31.02810000     -74.95350000
H      -48.55240000     -33.26610000     -71.43460000
H      -48.13880000     -35.29540000     -75.27710000
H      -47.64040000     -33.04630000     -76.21010000
C      -48.32890000     -35.76590000     -72.74590000
H      -48.92040000     -36.60210000     -73.23640000
H      -48.60090000     -35.89590000     -71.67630000
C      -48.03720000     -30.76670000     -72.27670000
H      -48.60400000     -29.92730000     -72.80190000
H      -48.45420000     -30.95110000     -71.32510000
S      -46.61990000     -36.49720000     -72.91890000
S      -46.43500000     -29.97860000     -72.01010000
C      -45.50560000     -35.17500000     -72.31140000
H      -44.41160000     -35.42780000     -72.61600000
H      -45.80760000     -34.16250000     -72.68280000
C      -45.30600000     -31.37910000     -71.44670000
H      -44.35710000     -31.20180000     -71.84400000
H      -45.72040000     -32.25980000     -71.94050000
C      -45.33170000     -31.48770000     -69.93980000
H      -45.51200000     -30.52130000     -69.55910000
H      -46.19190000     -32.06520000     -69.70280000
C      -45.46760000     -35.05730000     -70.71020000
H      -45.75390000     -35.94730000     -70.19340000
H      -46.19540000     -34.24720000     -70.39190000
C      -44.08100000     -34.75660000     -70.19710000
C      -43.07410000     -35.72580000     -70.17710000
C      -43.64100000     -33.57820000     -69.47580000
H      -43.04580000     -36.55120000     -70.78760000
C      -42.38670000     -33.72380000     -68.92000000
C      -44.04710000     -32.12840000     -69.41290000
C      -43.08780000     -31.38210000     -68.80980000
S      -41.63990000     -35.20980000     -69.26290000
S      -41.62780000     -32.27340000     -68.26040000
H      -43.22250000     -30.35480000     -68.60240000
