40
Properties=species:S:1:pos:R:3 #=T CELL(abcABC):=T 1.889726e+02=T 90.00000=T Traj:=T positionsangstrom=T Step:=T 0=T Bead:=T pbc="F F F"
C      -42.99470000     -35.69250000     -68.54920000
C      -43.62870000     -34.42850000     -68.32570000
C      -43.26950000     -33.31110000     -69.07650000
C      -42.14420000     -33.31070000     -69.91960000
C      -41.52710000     -34.56380000     -70.11080000
C      -42.01580000     -35.75490000     -69.51150000
H      -43.38640000     -36.52810000     -68.01050000
H      -43.76150000     -32.36170000     -68.82390000
H      -40.68990000     -34.63180000     -70.78960000
H      -41.48190000     -36.70100000     -69.75580000
C      -41.62360000     -32.05380000     -70.52460000
H      -40.53130000     -31.92240000     -70.31510000
H      -42.19550000     -31.22800000     -70.07870000
C      -44.58990000     -34.35460000     -67.20390000
H      -44.64670000     -35.30210000     -66.68730000
H      -44.25500000     -33.57030000     -66.40770000
S      -41.81520000     -32.09420000     -72.36820000
S      -46.30020000     -33.66120000     -67.57350000
C      -43.59160000     -32.80800000     -72.59320000
H      -43.54390000     -33.36080000     -73.47580000
H      -43.82490000     -33.50370000     -71.79960000
C      -46.90960000     -34.32020000     -69.20270000
H      -47.91520000     -33.87540000     -69.13740000
H      -46.92990000     -35.41250000     -69.21480000
C      -46.26580000     -33.74560000     -70.50800000
H      -46.01660000     -32.66610000     -70.36810000
H      -45.50600000     -34.29840000     -70.92850000
C      -44.73240000     -31.72110000     -72.61590000
H      -44.32760000     -30.86660000     -73.05760000
H      -44.95230000     -31.33880000     -71.61350000
C      -45.91720000     -32.17460000     -73.46400000
C      -46.20400000     -31.59240000     -74.67030000
C      -47.02280000     -33.02070000     -72.95690000
H      -45.50510000     -30.91340000     -75.26270000
C      -48.08610000     -33.15270000     -73.78910000
C      -47.25110000     -33.68300000     -71.69360000
C      -48.36610000     -34.48720000     -71.74060000
S      -47.81740000     -32.13950000     -75.19590000
S      -49.35720000     -34.30980000     -73.17980000
H      -48.72880000     -35.05580000     -70.87430000
