40
Properties=species:S:1:pos:R:3 #=T CELL(abcABC):=T 1.889726e+02=T 90.00000=T Traj:=T positionsangstrom=T Step:=T 0=T Bead:=T pbc="F F F"
C      -42.91790000     -35.57110000     -68.65090000
C      -43.53850000     -34.40270000     -68.22720000
C      -43.14130000     -33.18160000     -68.77780000
C      -42.18770000     -33.12890000     -69.79870000
C      -41.61770000     -34.34970000     -70.25880000
C      -41.90240000     -35.54050000     -69.62030000
H      -43.26660000     -36.55680000     -68.21710000
H      -43.75410000     -32.29280000     -68.38860000
H      -40.94650000     -34.30500000     -71.11900000
H      -41.45700000     -36.46420000     -69.85580000
C      -41.90880000     -31.83330000     -70.63590000
H      -40.84580000     -31.56680000     -70.49400000
H      -42.51570000     -31.00430000     -70.35660000
C      -44.67680000     -34.56190000     -67.23270000
H      -44.89660000     -35.63840000     -67.17350000
H      -44.40610000     -34.20100000     -66.26790000
S      -41.98760000     -32.12790000     -72.49450000
S      -46.21100000     -33.57160000     -67.56970000
C      -43.68500000     -32.83440000     -72.82540000
H      -43.63650000     -33.23370000     -73.87190000
H      -43.84350000     -33.74490000     -72.15490000
C      -46.94700000     -34.32510000     -69.05140000
H      -47.98070000     -34.18770000     -69.09800000
H      -46.88750000     -35.42810000     -68.98740000
C      -46.26320000     -33.88120000     -70.43340000
H      -45.58190000     -32.98560000     -70.25200000
H      -45.59110000     -34.73070000     -70.52060000
C      -44.72590000     -31.71860000     -72.64730000
H      -44.36670000     -30.76130000     -73.13910000
H      -44.96770000     -31.56650000     -71.60620000
C      -45.94230000     -32.12890000     -73.39350000
C      -46.25090000     -31.71300000     -74.69130000
C      -46.95640000     -33.06430000     -72.81800000
H      -45.57620000     -31.37080000     -75.43060000
C      -47.99970000     -33.12590000     -73.67190000
C      -47.19800000     -33.81620000     -71.61510000
C      -48.36900000     -34.52460000     -71.70370000
S      -47.70560000     -32.42000000     -75.19880000
S      -49.31630000     -34.21340000     -73.16810000
H      -48.83700000     -35.06430000     -70.84750000
