40
Properties=species:S:1:pos:R:3 #=T CELL(abcABC):=T 1.889726e+02=T 90.00000=T Traj:=T positionsangstrom=T Step:=T 0=T Bead:=T pbc="F F F"
C      -45.76670000     -36.76120000     -69.24310000
C      -45.69550000     -35.42790000     -68.70970000
C      -44.42520000     -34.74600000     -68.71920000
C      -43.33270000     -35.33990000     -69.31640000
C      -43.43090000     -36.60580000     -69.88300000
C      -44.60710000     -37.31830000     -69.77000000
H      -46.65100000     -37.50860000     -69.22620000
H      -44.25290000     -33.89630000     -68.13260000
H      -42.59260000     -37.03390000     -70.35990000
H      -44.55210000     -38.28700000     -70.16630000
C      -42.00170000     -34.63230000     -69.29130000
H      -41.24530000     -35.27750000     -69.05650000
H      -42.07140000     -33.78720000     -68.53350000
C      -46.76560000     -34.64260000     -67.96290000
H      -47.19330000     -35.24020000     -67.12780000
H      -46.29130000     -33.68890000     -67.81080000
S      -41.59160000     -34.02900000     -70.89720000
S      -48.27870000     -34.44300000     -69.00510000
C      -42.95200000     -33.06600000     -71.50320000
H      -43.41520000     -32.60750000     -70.67250000
H      -42.46260000     -32.34510000     -72.20110000
C      -47.76860000     -33.49430000     -70.47570000
H      -48.75930000     -33.32120000     -71.02310000
H      -47.20420000     -34.17330000     -71.16830000
C      -46.80270000     -32.25990000     -70.27210000
H      -47.12030000     -31.49470000     -69.57240000
H      -45.78240000     -32.52580000     -69.93640000
C      -44.09740000     -33.96900000     -72.17800000
H      -44.79350000     -34.30480000     -71.49970000
H      -43.66630000     -34.72280000     -72.78180000
C      -44.84850000     -32.99480000     -73.12150000
C      -44.38940000     -32.86920000     -74.44530000
C      -45.84310000     -32.00570000     -72.82000000
H      -43.60050000     -33.47290000     -74.89750000
C      -46.14260000     -31.12650000     -73.93220000
C      -46.62670000     -31.55710000     -71.65820000
C      -47.44730000     -30.45710000     -71.88420000
S      -45.18300000     -31.64710000     -75.35890000
S      -47.32140000     -29.85550000     -73.56880000
H      -48.22050000     -30.04680000     -71.26030000
