40
Properties=species:S:1:pos:R:3 #=T CELL(abcABC):=T 1.889726e+02=T 90.00000=T Traj:=T positionsangstrom=T Step:=T 0=T Bead:=T pbc="F F F"
C      -45.67330000     -36.57180000     -69.09380000
C      -45.60600000     -35.27060000     -68.58190000
C      -44.36120000     -34.60110000     -68.72270000
C      -43.23780000     -35.25970000     -69.25800000
C      -43.32190000     -36.62980000     -69.70040000
C      -44.56900000     -37.17200000     -69.66110000
H      -46.73470000     -37.08700000     -69.27480000
H      -44.16670000     -33.54240000     -68.56030000
H      -42.50880000     -37.08870000     -70.18400000
H      -44.77950000     -38.19540000     -70.06070000
C      -41.91480000     -34.61390000     -69.29660000
H      -41.08560000     -35.30300000     -69.15800000
H      -41.75100000     -33.78320000     -68.53670000
C      -46.81780000     -34.61390000     -67.96290000
H      -47.17950000     -35.16690000     -67.06800000
H      -46.57350000     -33.61840000     -67.59960000
S      -41.38780000     -33.91560000     -71.05520000
S      -48.23030000     -34.58220000     -69.11510000
C      -42.93190000     -32.97460000     -71.49990000
H      -43.10690000     -32.32470000     -70.57550000
H      -42.76430000     -32.28760000     -72.25270000
C      -47.58770000     -33.81110000     -70.61640000
H      -48.43480000     -33.56430000     -71.14590000
H      -47.02210000     -34.50320000     -71.23180000
C      -46.77470000     -32.41330000     -70.32090000
H      -47.28280000     -31.85020000     -69.51480000
H      -45.76650000     -32.74720000     -69.98890000
C      -44.17220000     -33.85160000     -72.08180000
H      -44.82150000     -34.31680000     -71.27150000
H      -43.74200000     -34.78980000     -72.50120000
C      -44.84710000     -32.98360000     -73.11240000
C      -44.48220000     -32.83930000     -74.44320000
C      -45.97850000     -32.06500000     -72.83780000
H      -43.54150000     -33.23950000     -74.96120000
C      -46.31010000     -31.24540000     -73.91470000
C      -46.77120000     -31.65200000     -71.59910000
C      -47.54720000     -30.58110000     -71.85940000
S      -45.31150000     -31.52840000     -75.34070000
S      -47.46290000     -29.99410000     -73.55880000
H      -48.51240000     -30.34750000     -71.33750000
