40
Properties=species:S:1:pos:R:3 #=T CELL(abcABC):=T 1.889726e+02=T 90.00000=T Traj:=T positionsangstrom=T Step:=T 0=T Bead:=T pbc="F F F"
C      -47.61320000     -31.17180000     -73.59520000
C      -47.97870000     -31.59240000     -72.33140000
C      -48.26380000     -32.92590000     -72.10360000
C      -48.19560000     -33.97360000     -73.04300000
C      -47.97710000     -33.49880000     -74.36260000
C      -47.60260000     -32.15500000     -74.59060000
H      -47.46020000     -30.10220000     -73.79440000
H      -48.70180000     -33.16590000     -71.13260000
H      -48.10850000     -34.08070000     -75.28070000
H      -47.41200000     -31.84330000     -75.57640000
C      -48.45100000     -35.37790000     -72.72290000
H      -49.25910000     -35.81670000     -73.35570000
H      -48.67610000     -35.54400000     -71.66340000
C      -48.18060000     -30.71770000     -71.16900000
H      -49.00730000     -30.09940000     -71.35100000
H      -48.35050000     -31.27410000     -70.22940000
S      -47.06990000     -36.54250000     -73.15070000
S      -46.68750000     -29.67260000     -70.82490000
C      -45.52120000     -35.56330000     -72.92820000
H      -44.69800000     -36.12240000     -73.31540000
H      -45.63110000     -34.66290000     -73.48000000
C      -45.20720000     -30.76070000     -71.05490000
H      -44.36640000     -30.06660000     -70.83480000
H      -44.99750000     -31.17190000     -72.06410000
C      -45.41520000     -31.92340000     -70.01610000
H      -45.87160000     -31.44190000     -69.12180000
H      -46.27760000     -32.53060000     -70.41800000
C      -45.31540000     -35.34990000     -71.37530000
H      -45.57250000     -36.18410000     -70.74220000
H      -46.05140000     -34.65490000     -71.03390000
C      -43.86480000     -35.02640000     -70.90190000
C      -42.82910000     -35.90580000     -71.17530000
C      -43.52610000     -33.89270000     -70.06430000
H      -42.72640000     -36.76850000     -71.69070000
C      -42.20090000     -34.08170000     -69.60150000
C      -44.09620000     -32.61140000     -69.64300000
C      -43.15700000     -31.91670000     -68.86710000
S      -41.42310000     -35.53130000     -70.13540000
S      -41.69380000     -32.82450000     -68.46240000
H      -43.30820000     -31.01950000     -68.26730000
