40
Properties=species:S:1:pos:R:3 #=T CELL(abcABC):=T 1.889726e+02=T 90.00000=T Traj:=T positionsangstrom=T Step:=T 0=T Bead:=T pbc="F F F"
C      -46.83670000     -36.30050000     -73.19380000
C      -46.00730000     -36.52500000     -72.01060000
C      -46.54900000     -36.26520000     -70.74280000
C      -47.90460000     -35.91670000     -70.63870000
C      -48.64260000     -35.50220000     -71.79100000
C      -48.08570000     -35.73960000     -73.05980000
H      -46.32890000     -36.36550000     -74.13650000
H      -46.07260000     -36.52720000     -69.76310000
H      -49.51560000     -34.93440000     -71.54890000
H      -48.50460000     -35.42940000     -74.01870000
C      -48.59400000     -35.56580000     -69.37030000
H      -48.69960000     -36.37850000     -68.65280000
H      -49.63830000     -35.25240000     -69.52860000
C      -44.58500000     -37.15620000     -72.07090000
H      -44.64340000     -38.20440000     -71.68460000
H      -44.30960000     -37.28860000     -73.18850000
S      -47.70010000     -34.28810000     -68.41100000
S      -43.31330000     -36.27270000     -71.09300000
C      -47.23640000     -32.87190000     -69.57750000
H      -47.96760000     -32.98190000     -70.41740000
H      -47.47860000     -31.99910000     -68.99130000
C      -43.28730000     -34.68960000     -71.94130000
H      -44.28830000     -34.30820000     -72.05830000
H      -42.64930000     -34.71450000     -72.84250000
C      -42.58430000     -33.53350000     -71.07940000
H      -43.02210000     -33.67550000     -70.10640000
H      -41.49830000     -33.67940000     -70.99230000
C      -45.82170000     -32.82050000     -70.13250000
H      -45.57700000     -33.60590000     -70.88870000
H      -45.03370000     -33.01590000     -69.28420000
C      -45.46210000     -31.53730000     -70.92870000
C      -46.18790000     -30.37420000     -71.03600000
C      -44.12710000     -31.40260000     -71.44410000
H      -47.14530000     -30.22630000     -70.49710000
C      -44.02230000     -30.13090000     -72.09770000
C      -42.92460000     -32.17790000     -71.73370000
C      -42.01480000     -31.49870000     -72.53640000
S      -45.42120000     -29.09640000     -71.98180000
S      -42.54660000     -29.83600000     -73.02440000
H      -40.96820000     -31.71170000     -72.72030000
