40
Properties=species:S:1:pos:R:3 #=T CELL(abcABC):=T 1.889726e+02=T 90.00000=T Traj:=T positionsangstrom=T Step:=T 0=T Bead:=T pbc="F F F"
C      -45.22180000     -36.72890000     -68.55790000
C      -45.33820000     -35.36890000     -68.22020000
C      -44.32020000     -34.47560000     -68.50420000
C      -43.16490000     -35.01760000     -69.12140000
C      -43.03490000     -36.34840000     -69.48350000
C      -44.06060000     -37.21490000     -69.21740000
H      -46.14030000     -37.38660000     -68.30990000
H      -44.39670000     -33.44170000     -68.17140000
H      -42.17630000     -36.66250000     -70.09240000
H      -44.04250000     -38.33070000     -69.54890000
C      -42.00930000     -34.14030000     -69.49640000
H      -41.05910000     -34.36740000     -69.02680000
H      -42.31090000     -33.12220000     -69.26860000
C      -46.72130000     -34.80090000     -67.73270000
H      -47.11440000     -35.45770000     -66.92720000
H      -46.54630000     -33.68930000     -67.42370000
S      -41.41910000     -34.10760000     -71.35230000
S      -48.01560000     -34.81330000     -69.08950000
C      -42.74220000     -32.96160000     -72.00270000
H      -43.05620000     -32.34370000     -71.19240000
H      -42.22290000     -32.29390000     -72.74410000
C      -47.29360000     -34.06920000     -70.58340000
H      -48.10680000     -33.96450000     -71.37730000
H      -46.53310000     -34.59390000     -71.06490000
C      -46.64820000     -32.58730000     -70.33250000
H      -47.14530000     -32.02800000     -69.53460000
H      -45.66120000     -32.83460000     -69.96550000
C      -44.02640000     -33.70520000     -72.54970000
H      -44.62790000     -34.14270000     -71.72180000
H      -43.73400000     -34.53990000     -73.20240000
C      -44.91210000     -32.76170000     -73.34630000
C      -44.67240000     -32.45390000     -74.67710000
C      -46.06310000     -31.94070000     -72.93920000
H      -43.97980000     -32.95980000     -75.33980000
C      -46.54690000     -31.05490000     -73.88090000
C      -46.78820000     -31.90520000     -71.73680000
C      -47.81900000     -30.96030000     -71.82360000
S      -45.72270000     -31.29300000     -75.43030000
S      -47.88440000     -30.07940000     -73.31380000
H      -48.38730000     -30.70850000     -70.86940000
