40
Properties=species:S:1:pos:R:3 #=T CELL(abcABC):=T 1.889726e+02=T 90.00000=T Traj:=T positionsangstrom=T Step:=T 0=T Bead:=T pbc="F F F"
C      -46.24760000     -36.67420000     -73.01570000
C      -45.78790000     -36.84990000     -71.70270000
C      -46.59290000     -36.50210000     -70.61790000
C      -47.70670000     -35.70400000     -70.84630000
C      -48.13480000     -35.43600000     -72.12840000
C      -47.47360000     -35.99050000     -73.24100000
H      -45.87140000     -36.94720000     -73.95500000
H      -46.34200000     -36.71180000     -69.57700000
H      -49.10250000     -34.90370000     -72.14770000
H      -47.79940000     -35.70890000     -74.19760000
C      -48.58940000     -35.06650000     -69.71720000
H      -49.14780000     -35.88610000     -69.16780000
H      -49.36170000     -34.47250000     -70.19530000
C      -44.43300000     -37.55130000     -71.38050000
H      -44.53050000     -38.14210000     -70.48820000
H      -44.09260000     -38.14460000     -72.25000000
S      -47.76870000     -34.04500000     -68.43670000
S      -43.23810000     -36.21900000     -70.76300000
C      -47.37020000     -32.49330000     -69.40920000
H      -48.20650000     -32.22100000     -70.09450000
H      -47.30490000     -31.63500000     -68.73660000
C      -43.35580000     -34.73300000     -71.89470000
H      -44.42300000     -34.46150000     -72.18230000
H      -43.03350000     -35.00050000     -72.88370000
C      -42.70200000     -33.57180000     -71.19720000
H      -43.02350000     -33.61290000     -70.14750000
H      -41.65120000     -33.75060000     -71.18800000
C      -46.00730000     -32.73370000     -70.13940000
H      -46.10600000     -33.58620000     -70.83620000
H      -45.31680000     -33.01350000     -69.38370000
C      -45.64320000     -31.46240000     -70.96910000
C      -46.38650000     -30.34290000     -71.14280000
C      -44.34690000     -31.41490000     -71.68950000
H      -47.30490000     -30.02540000     -70.63580000
C      -44.23850000     -30.17320000     -72.32290000
C      -43.10970000     -32.20460000     -71.82840000
C      -42.16360000     -31.59570000     -72.59300000
S      -45.54820000     -29.08260000     -72.04120000
S      -42.63030000     -29.96770000     -73.11580000
H      -41.18560000     -31.90520000     -72.76560000
