40
Properties=species:S:1:pos:R:3 #=T CELL(abcABC):=T 1.889726e+02=T 90.00000=T Traj:=T positionsangstrom=T Step:=T 0=T Bead:=T pbc="F F F"
C      -46.15160000     -36.48060000     -72.95780000
C      -45.77190000     -36.73930000     -71.59490000
C      -46.55870000     -36.23990000     -70.62710000
C      -47.85550000     -35.62700000     -70.87410000
C      -48.19020000     -35.33430000     -72.18860000
C      -47.30460000     -35.78930000     -73.23850000
H      -45.49670000     -36.81780000     -73.80780000
H      -46.32750000     -36.35770000     -69.54930000
H      -49.08390000     -34.86680000     -72.55070000
H      -47.70140000     -35.74470000     -74.21060000
C      -48.74190000     -35.23060000     -69.70670000
H      -48.95750000     -36.12490000     -69.15680000
H      -49.69110000     -34.68720000     -69.97980000
C      -44.52250000     -37.43640000     -71.40310000
H      -44.59450000     -38.19380000     -70.64980000
H      -44.16740000     -37.95940000     -72.28850000
S      -47.74140000     -34.13350000     -68.55280000
S      -43.14370000     -36.32230000     -70.76970000
C      -47.35970000     -32.67090000     -69.53650000
H      -48.19420000     -32.56190000     -70.29660000
H      -47.46810000     -31.85290000     -68.90350000
C      -43.50970000     -34.76410000     -71.67030000
H      -44.57070000     -34.73750000     -71.88090000
H      -42.85680000     -34.91550000     -72.52700000
C      -43.03300000     -33.51760000     -70.99010000
H      -43.50930000     -33.39290000     -70.01910000
H      -41.97420000     -33.60470000     -70.74600000
C      -45.91380000     -32.67870000     -70.12440000
H      -45.75340000     -33.49480000     -70.81820000
H      -45.17010000     -32.78950000     -69.27900000
C      -45.56070000     -31.44420000     -70.92320000
C      -46.26520000     -30.31380000     -70.92990000
C      -44.30140000     -31.40000000     -71.65890000
H      -47.26250000     -30.24590000     -70.64630000
C      -44.22540000     -30.19480000     -72.36480000
C      -43.11510000     -32.22950000     -71.74570000
C      -42.17560000     -31.60620000     -72.54580000
S      -45.54040000     -29.12390000     -72.12500000
S      -42.65520000     -30.03180000     -73.22040000
H      -41.16880000     -31.89170000     -72.62510000
