40
Properties=species:S:1:pos:R:3 #=T CELL(abcABC):=T 1.889726e+02=T 90.00000=T Traj:=T positionsangstrom=T Step:=T 0=T Bead:=T pbc="F F F"
C      -46.10190000     -36.34650000     -73.07920000
C      -45.76200000     -36.63160000     -71.80750000
C      -46.58190000     -36.23370000     -70.70070000
C      -47.75990000     -35.56980000     -70.87400000
C      -48.15930000     -35.26130000     -72.27050000
C      -47.32730000     -35.65440000     -73.30120000
H      -45.39310000     -36.52280000     -73.92130000
H      -46.15810000     -36.47120000     -69.74060000
H      -48.99320000     -34.61280000     -72.50190000
H      -47.61080000     -35.22920000     -74.30360000
C      -48.63870000     -35.23450000     -69.61090000
H      -48.80090000     -36.15130000     -69.05730000
H      -49.66550000     -34.81580000     -69.83720000
C      -44.43810000     -37.34570000     -71.50020000
H      -44.66450000     -38.23590000     -70.83940000
H      -44.02810000     -37.65670000     -72.44400000
S      -47.85630000     -34.11570000     -68.47750000
S      -43.15340000     -36.27110000     -70.68810000
C      -47.56600000     -32.66510000     -69.66190000
H      -48.06220000     -32.86450000     -70.56200000
H      -47.96490000     -31.69470000     -69.22900000
C      -43.31210000     -34.74420000     -71.73360000
H      -44.33890000     -34.48030000     -71.87910000
H      -42.90730000     -34.75490000     -72.79040000
C      -42.74580000     -33.56420000     -70.97560000
H      -43.15240000     -33.68740000     -69.98570000
H      -41.64200000     -33.66330000     -70.78500000
C      -46.02110000     -32.55070000     -69.93570000
H      -45.64630000     -33.56060000     -70.21770000
H      -45.43020000     -32.50060000     -68.96450000
C      -45.59300000     -31.42000000     -70.85760000
C      -46.36120000     -30.32080000     -71.11020000
C      -44.30760000     -31.34900000     -71.41880000
H      -47.32340000     -30.11300000     -70.93860000
C      -44.12080000     -30.21350000     -72.22760000
C      -43.12110000     -32.24260000     -71.61380000
C      -42.26290000     -31.82530000     -72.60820000
S      -45.48750000     -29.18910000     -72.09010000
S      -42.74690000     -30.25780000     -73.29890000
H      -41.44890000     -32.40320000     -73.07720000
