40
Properties=species:S:1:pos:R:3 #=T CELL(abcABC):=T 1.889726e+02=T 90.00000=T Traj:=T positionsangstrom=T Step:=T 0=T Bead:=T pbc="F F F"
C      -46.13000000     -36.28250000     -73.18660000
C      -45.66060000     -36.62170000     -71.88350000
C      -46.43860000     -36.30170000     -70.72610000
C      -47.67930000     -35.62890000     -70.80530000
C      -48.12290000     -35.31790000     -72.14670000
C      -47.31800000     -35.56910000     -73.25520000
H      -45.54320000     -36.67560000     -73.96170000
H      -46.01180000     -36.60680000     -69.80170000
H      -49.18210000     -35.01880000     -72.30060000
H      -47.72970000     -35.15880000     -74.16670000
C      -48.67230000     -35.34890000     -69.75540000
H      -48.97190000     -36.20810000     -69.09320000
H      -49.57900000     -35.04770000     -70.18490000
C      -44.29820000     -37.29560000     -71.66190000
H      -44.46460000     -38.22390000     -71.10800000
H      -43.69780000     -37.52940000     -72.55000000
S      -48.01150000     -33.99940000     -68.56240000
S      -43.16460000     -36.27390000     -70.61710000
C      -47.38700000     -32.54290000     -69.53010000
H      -47.87940000     -32.52360000     -70.47450000
H      -47.73310000     -31.67390000     -68.94410000
C      -43.08360000     -34.74860000     -71.61500000
H      -43.98620000     -34.71990000     -72.23800000
H      -42.23770000     -34.93920000     -72.31070000
C      -42.88640000     -33.49630000     -70.80530000
H      -43.49980000     -33.45010000     -69.85520000
H      -41.85830000     -33.45080000     -70.54160000
C      -45.86550000     -32.47550000     -69.75130000
H      -45.49670000     -33.30750000     -70.27820000
H      -45.40000000     -32.28610000     -68.78830000
C      -45.49130000     -31.36520000     -70.64400000
C      -46.21040000     -30.21170000     -70.86920000
C      -44.36810000     -31.42760000     -71.49080000
H      -46.96910000     -29.81140000     -70.30790000
C      -44.31910000     -30.42630000     -72.47960000
C      -43.11160000     -32.22010000     -71.59780000
C      -42.25150000     -31.74640000     -72.56680000
S      -45.61050000     -29.29890000     -72.20150000
S      -42.84100000     -30.33080000     -73.40800000
H      -41.34720000     -32.31930000     -72.86850000
