40
Properties=species:S:1:pos:R:3 #=T CELL(abcABC):=T 1.889726e+02=T 90.00000=T Traj:=T positionsangstrom=T Step:=T 0=T Bead:=T pbc="F F F"
C      -45.35220000     -36.45300000     -69.36600000
C      -44.91770000     -35.39880000     -68.53170000
C      -43.66580000     -34.76190000     -68.66140000
C      -42.80120000     -35.19580000     -69.70740000
C      -43.32050000     -36.15420000     -70.63740000
C      -44.51160000     -36.85800000     -70.41650000
H      -46.36820000     -36.83350000     -69.18530000
H      -43.48080000     -33.83560000     -68.10470000
H      -42.69520000     -36.47660000     -71.43110000
H      -44.97280000     -37.53000000     -71.16130000
C      -41.43300000     -34.72530000     -69.97240000
H      -40.76280000     -35.54470000     -70.36480000
H      -40.94090000     -34.27610000     -69.09920000
C      -45.83850000     -34.83360000     -67.55440000
H      -46.00840000     -35.51860000     -66.74440000
H      -45.41880000     -33.98990000     -67.14690000
S      -41.23760000     -33.32300000     -71.33500000
S      -47.55560000     -34.38570000     -68.22330000
C      -42.91260000     -32.55590000     -71.63840000
H      -43.26680000     -32.29280000     -70.60840000
H      -42.64160000     -31.68020000     -72.14210000
C      -47.29550000     -33.88790000     -69.99020000
H      -48.27020000     -33.67980000     -70.42750000
H      -46.85550000     -34.66010000     -70.64340000
C      -46.40050000     -32.58180000     -70.10250000
H      -46.74930000     -31.95480000     -69.26700000
H      -45.36830000     -32.86080000     -70.18020000
C      -43.93060000     -33.33870000     -72.47510000
H      -44.38160000     -34.11550000     -71.83250000
H      -43.33480000     -33.95670000     -73.13370000
C      -44.95030000     -32.51990000     -73.25520000
C      -44.76280000     -32.45090000     -74.63800000
C      -46.24110000     -32.07450000     -72.74100000
H      -43.96260000     -32.96400000     -75.24190000
C      -46.98320000     -31.50320000     -73.84290000
C      -46.88100000     -32.01270000     -71.44230000
C      -48.04760000     -31.25450000     -71.59320000
S      -46.28480000     -31.76370000     -75.39150000
S      -48.48100000     -30.78500000     -73.29610000
H      -48.86730000     -31.06810000     -70.85270000
