40
Properties=species:S:1:pos:R:3 #=T CELL(abcABC):=T 1.889726e+02=T 90.00000=T Traj:=T positionsangstrom=T Step:=T 0=T Bead:=T pbc="F F F"
C      -43.04540000     -35.39020000     -69.34180000
C      -42.98450000     -34.06320000     -68.90530000
C      -42.40730000     -33.01000000     -69.65890000
C      -42.01250000     -33.32070000     -70.99900000
C      -42.12030000     -34.64300000     -71.47010000
C      -42.54660000     -35.66700000     -70.61330000
H      -43.42180000     -36.16130000     -68.64700000
H      -42.33830000     -32.04540000     -69.20600000
H      -41.62360000     -34.94050000     -72.43320000
H      -42.40800000     -36.67210000     -70.91520000
C      -41.32280000     -32.24460000     -71.83280000
H      -40.90210000     -32.69360000     -72.70120000
H      -40.51990000     -31.65600000     -71.40450000
C      -43.43690000     -33.68880000     -67.51900000
H      -43.44540000     -34.60650000     -66.81830000
H      -42.79990000     -33.00900000     -66.96970000
S      -42.67890000     -30.99150000     -72.28850000
S      -45.10010000     -32.76820000     -67.51810000
C      -44.07990000     -32.02590000     -73.05730000
H      -44.02260000     -32.24060000     -74.14620000
H      -44.13240000     -32.99600000     -72.58850000
C      -46.13830000     -33.83500000     -68.70910000
H      -47.04170000     -34.23590000     -68.22120000
H      -45.56770000     -34.71000000     -69.02720000
C      -46.37190000     -32.98870000     -69.99390000
H      -46.86990000     -32.02720000     -69.74000000
H      -45.38420000     -32.91370000     -70.41170000
C      -45.52650000     -31.37280000     -72.93750000
H      -45.58350000     -30.51420000     -73.51520000
H      -45.68960000     -31.11250000     -71.88780000
C      -46.59890000     -32.35860000     -73.31270000
C      -47.14390000     -32.42280000     -74.54810000
C      -47.31680000     -33.32300000     -72.40260000
H      -46.77730000     -31.91700000     -75.36000000
C      -48.21100000     -34.08670000     -73.10910000
C      -47.24450000     -33.72200000     -71.00920000
C      -48.06500000     -34.79520000     -70.75080000
S      -48.43480000     -33.65230000     -74.74400000
S      -48.96070000     -35.36700000     -72.14950000
H      -48.18570000     -35.32510000     -69.79470000
