40
Properties=species:S:1:pos:R:3 #=T CELL(abcABC):=T 1.889726e+02=T 90.00000=T Traj:=T positionsangstrom=T Step:=T 0=T Bead:=T pbc="F F F"
C      -42.51610000     -35.57520000     -69.65170000
C      -42.70370000     -34.29700000     -69.07640000
C      -42.42160000     -33.16350000     -69.81090000
C      -41.96710000     -33.16710000     -71.10160000
C      -41.95020000     -34.43770000     -71.72480000
C      -42.29760000     -35.55600000     -71.02290000
H      -42.67780000     -36.44410000     -68.99410000
H      -42.59320000     -32.22350000     -69.30300000
H      -41.66360000     -34.49510000     -72.77570000
H      -42.28530000     -36.50710000     -71.58500000
C      -41.61580000     -31.94090000     -71.87470000
H      -41.17090000     -32.17590000     -72.83650000
H      -40.81290000     -31.43420000     -71.28670000
C      -43.23730000     -34.15990000     -67.63700000
H      -43.29160000     -35.08790000     -67.14040000
H      -42.41410000     -33.59690000     -67.11060000
S      -42.98460000     -30.75020000     -72.23760000
S      -44.73780000     -33.15180000     -67.57580000
C      -44.22910000     -31.81530000     -73.14960000
H      -44.00800000     -31.89520000     -74.15560000
H      -44.12450000     -32.81980000     -72.64910000
C      -45.98500000     -34.00690000     -68.69400000
H      -46.93230000     -33.85180000     -68.19450000
H      -45.72120000     -35.06230000     -68.78880000
C      -45.93750000     -33.44810000     -70.07360000
H      -45.66270000     -32.40540000     -70.14630000
H      -45.00260000     -33.91180000     -70.54140000
C      -45.66010000     -31.34700000     -72.92660000
H      -45.87010000     -30.50530000     -73.52910000
H      -45.70790000     -30.99660000     -71.93820000
C      -46.75790000     -32.35580000     -73.15350000
C      -47.51140000     -32.23050000     -74.32820000
C      -47.32590000     -33.39160000     -72.31350000
H      -47.44190000     -31.46070000     -75.02200000
C      -48.35860000     -34.01940000     -72.95460000
C      -47.07640000     -33.83200000     -70.94420000
C      -47.96620000     -34.84050000     -70.65230000
S      -48.76290000     -33.40840000     -74.50730000
S      -49.12660000     -35.21750000     -71.97170000
H      -47.99240000     -35.42670000     -69.80280000
