40
Properties=species:S:1:pos:R:3 #=T CELL(abcABC):=T 1.889726e+02=T 90.00000=T Traj:=T positionsangstrom=T Step:=T 0=T Bead:=T pbc="F F F"
C      -42.66350000     -35.47030000     -70.39080000
C      -42.82760000     -34.40810000     -69.49900000
C      -42.36400000     -33.17020000     -69.92850000
C      -41.73810000     -33.06050000     -71.19800000
C      -41.56360000     -34.17230000     -72.00350000
C      -41.98640000     -35.41520000     -71.60050000
H      -43.12110000     -36.45290000     -70.18400000
H      -42.46730000     -32.28100000     -69.27190000
H      -41.17110000     -34.08860000     -72.99050000
H      -41.93160000     -36.25980000     -72.24630000
C      -41.45650000     -31.67940000     -71.73130000
H      -40.66270000     -31.66700000     -72.46300000
H      -41.17490000     -30.92540000     -70.94140000
C      -43.42490000     -34.71970000     -68.09870000
H      -43.68270000     -35.73150000     -68.21200000
H      -42.64680000     -34.70940000     -67.27810000
S      -42.99070000     -30.78720000     -72.53550000
S      -44.74740000     -33.55970000     -67.42730000
C      -44.37530000     -32.01020000     -72.60700000
H      -44.21060000     -32.74050000     -73.40920000
H      -44.26920000     -32.57820000     -71.66730000
C      -46.15780000     -34.05920000     -68.41960000
H      -47.04230000     -33.72020000     -67.79050000
H      -46.10520000     -35.10330000     -68.50750000
C      -46.23040000     -33.31420000     -69.78180000
H      -46.52650000     -32.27080000     -69.56390000
H      -45.18200000     -33.07510000     -70.18230000
C      -45.70320000     -31.29410000     -72.44230000
H      -45.70090000     -30.36570000     -73.02610000
H      -45.79690000     -30.99530000     -71.39340000
C      -46.76520000     -32.21220000     -72.92680000
C      -47.37210000     -32.10870000     -74.19320000
C      -47.33120000     -33.28750000     -72.15840000
H      -47.10700000     -31.42310000     -75.03840000
C      -48.41030000     -33.88460000     -72.83180000
C      -47.16720000     -33.87890000     -70.84870000
C      -48.08920000     -34.83670000     -70.53910000
S      -48.67480000     -33.20120000     -74.39310000
S      -49.11560000     -35.21770000     -71.95810000
H      -47.93610000     -35.52040000     -69.64750000
