40
Properties=species:S:1:pos:R:3 #=T CELL(abcABC):=T 1.889726e+02=T 90.00000=T Traj:=T positionsangstrom=T Step:=T 0=T Bead:=T pbc="F F F"
C      -42.53300000     -35.53810000     -70.51920000
C      -42.86830000     -34.54750000     -69.55960000
C      -42.56040000     -33.25200000     -69.92280000
C      -41.94270000     -32.87010000     -71.12590000
C      -41.82560000     -33.87850000     -72.09380000
C      -42.12520000     -35.16480000     -71.81990000
H      -42.60110000     -36.64110000     -70.29170000
H      -42.74700000     -32.42780000     -69.17650000
H      -41.29000000     -33.64040000     -73.02090000
H      -41.99410000     -35.89340000     -72.60900000
C      -41.58080000     -31.51340000     -71.49690000
H      -40.66740000     -31.53730000     -72.07950000
H      -41.34770000     -30.98810000     -70.53290000
C      -43.32240000     -34.86780000     -68.15070000
H      -43.82690000     -35.80430000     -68.08430000
H      -42.51720000     -34.83680000     -67.29470000
S      -42.93910000     -30.68240000     -72.45240000
S      -44.52820000     -33.68200000     -67.51970000
C      -44.19660000     -31.92780000     -72.85440000
H      -44.42510000     -32.01190000     -73.89950000
H      -43.98390000     -33.00350000     -72.40010000
C      -46.09540000     -34.13160000     -68.46810000
H      -47.04440000     -33.93620000     -67.93690000
H      -46.00890000     -35.20610000     -68.63050000
C      -46.21190000     -33.38400000     -69.85000000
H      -46.40560000     -32.36390000     -69.57340000
H      -45.30360000     -33.36630000     -70.45480000
C      -45.63030000     -31.40500000     -72.32850000
H      -45.80800000     -30.42050000     -72.80710000
H      -45.64120000     -31.09210000     -71.24720000
C      -46.81370000     -32.21260000     -72.80900000
C      -47.31790000     -32.06880000     -74.08930000
C      -47.48580000     -33.24410000     -72.05780000
H      -47.13920000     -31.16040000     -74.66400000
C      -48.43370000     -33.95990000     -72.83890000
C      -47.31940000     -33.85620000     -70.78650000
C      -48.17150000     -34.86170000     -70.50340000
S      -48.54710000     -33.26740000     -74.44140000
S      -49.20520000     -35.24510000     -71.85550000
H      -48.17610000     -35.59710000     -69.64850000
