40
Properties=species:S:1:pos:R:3 #=T CELL(abcABC):=T 1.889726e+02=T 90.00000=T Traj:=T positionsangstrom=T Step:=T 0=T Bead:=T pbc="F F F"
C      -47.95560000     -30.53800000     -70.08380000
C      -48.03230000     -31.93260000     -69.83400000
C      -48.31620000     -32.71830000     -70.94090000
C      -48.31520000     -32.21900000     -72.22940000
C      -48.17220000     -30.78600000     -72.48400000
C      -48.03390000     -29.96440000     -71.37900000
H      -47.70310000     -29.90550000     -69.19730000
H      -48.60450000     -33.76430000     -70.84840000
H      -48.38690000     -30.54680000     -73.54020000
H      -48.05290000     -28.85810000     -71.48380000
C      -48.54000000     -33.02900000     -73.48550000
H      -49.51950000     -32.78260000     -74.01010000
H      -48.70740000     -34.12820000     -73.27050000
C      -47.85780000     -32.47200000     -68.44860000
H      -48.81650000     -32.18450000     -67.92070000
H      -47.97040000     -33.48660000     -68.56770000
S      -47.21980000     -32.86190000     -74.72670000
S      -46.33830000     -31.89780000     -67.63250000
C      -45.70060000     -33.05500000     -73.67800000
H      -44.83520000     -33.01890000     -74.46790000
H      -45.53080000     -32.13610000     -73.14430000
C      -44.97280000     -32.27220000     -68.90120000
H      -44.02360000     -31.95050000     -68.48130000
H      -45.23060000     -31.50170000     -69.69560000
C      -45.03040000     -33.69160000     -69.50640000
H      -45.30620000     -34.50600000     -68.75040000
H      -45.75180000     -33.86140000     -70.31030000
C      -45.58700000     -34.34380000     -72.95570000
H      -46.01800000     -35.08350000     -73.56420000
H      -46.24600000     -34.37400000     -72.16430000
C      -44.16160000     -34.71790000     -72.63050000
C      -43.41670000     -35.36420000     -73.63480000
C      -43.47460000     -34.65360000     -71.42640000
H      -43.58140000     -35.25380000     -74.68800000
C      -42.11270000     -35.07340000     -71.58950000
C      -43.75160000     -34.20900000     -70.08190000
C      -42.73410000     -34.51110000     -69.20760000
S      -41.74170000     -35.82860000     -73.17580000
S      -41.27320000     -35.22000000     -70.02810000
H      -42.60730000     -34.32470000     -68.13380000
