40
Properties=species:S:1:pos:R:3 #=T CELL(abcABC):=T 1.889726e+02=T 90.00000=T Traj:=T positionsangstrom=T Step:=T 0=T Bead:=T pbc="F F F"
C      -46.11140000     -35.69970000     -74.04520000
C      -45.97530000     -36.33660000     -72.80860000
C      -46.91210000     -36.04630000     -71.81480000
C      -47.98710000     -35.15880000     -72.02240000
C      -47.99670000     -34.45080000     -73.25490000
C      -47.09130000     -34.75030000     -74.23340000
H      -45.31550000     -36.07800000     -74.75220000
H      -46.87870000     -36.58660000     -70.85430000
H      -48.72050000     -33.66590000     -73.33100000
H      -47.11580000     -34.15870000     -75.15930000
C      -49.16160000     -34.91200000     -71.09980000
H      -49.42810000     -35.87600000     -70.64080000
H      -50.06880000     -34.43630000     -71.61100000
C      -44.85690000     -37.35720000     -72.59360000
H      -45.14190000     -38.36760000     -72.21880000
H      -44.21260000     -37.58780000     -73.42880000
S      -48.86920000     -33.88610000     -69.54310000
S      -43.84480000     -36.79700000     -71.12300000
C      -47.84310000     -32.44440000     -70.12170000
H      -48.09590000     -32.26270000     -71.19130000
H      -48.20680000     -31.58400000     -69.55740000
C      -43.28350000     -35.04630000     -71.46370000
H      -43.99190000     -34.60130000     -72.17160000
H      -42.28890000     -35.08480000     -71.92940000
C      -43.25510000     -34.16910000     -70.28980000
H      -44.18120000     -34.16780000     -69.71480000
H      -42.55150000     -34.43990000     -69.51720000
C      -46.30120000     -32.65860000     -69.93660000
H      -46.04970000     -33.61870000     -70.31690000
H      -46.13170000     -32.84750000     -68.83600000
C      -45.40540000     -31.55980000     -70.35660000
C      -45.83090000     -30.26580000     -70.49950000
C      -43.96920000     -31.70180000     -70.79510000
H      -46.75390000     -29.81550000     -70.20130000
C      -43.49150000     -30.46040000     -71.21600000
C      -42.97470000     -32.70760000     -70.69800000
C      -41.75610000     -32.22010000     -70.94410000
S      -44.66470000     -29.18650000     -71.19120000
S      -41.77350000     -30.47110000     -71.43470000
H      -40.75430000     -32.73040000     -71.17420000
