40
Properties=species:S:1:pos:R:3 #=T CELL(abcABC):=T 1.889726e+02=T 90.00000=T Traj:=T positionsangstrom=T Step:=T 0=T Bead:=T pbc="F F F"
C      -46.05950000     -35.69360000     -74.02430000
C      -45.97390000     -36.18530000     -72.71480000
C      -47.05500000     -35.77970000     -71.87040000
C      -48.11940000     -34.96830000     -72.32010000
C      -48.02300000     -34.34760000     -73.60950000
C      -47.02140000     -34.73210000     -74.48170000
H      -45.27180000     -36.02000000     -74.70600000
H      -47.07480000     -36.15490000     -70.90220000
H      -48.82120000     -33.62700000     -73.85340000
H      -47.23640000     -34.47880000     -75.53370000
C      -49.25130000     -34.71710000     -71.31990000
H      -49.93190000     -35.55650000     -71.18800000
H      -49.90120000     -34.03290000     -71.78620000
C      -44.91730000     -37.27600000     -72.44060000
H      -45.34010000     -38.17780000     -72.05730000
H      -44.31240000     -37.42390000     -73.34110000
S      -48.73970000     -34.09950000     -69.59120000
S      -43.75310000     -36.68150000     -71.07820000
C      -47.83120000     -32.52560000     -69.92670000
H      -48.08710000     -32.27250000     -70.89910000
H      -48.15750000     -31.71860000     -69.25570000
C      -43.35670000     -34.98560000     -71.48480000
H      -44.13320000     -34.63650000     -72.16630000
H      -42.38590000     -34.96400000     -72.04970000
C      -43.23240000     -34.15050000     -70.20990000
H      -44.00800000     -34.31910000     -69.46240000
H      -42.26730000     -34.51170000     -69.78930000
C      -46.28700000     -32.72370000     -69.84520000
H      -46.07590000     -33.69230000     -70.44140000
H      -45.93190000     -32.74420000     -68.79310000
C      -45.44200000     -31.60550000     -70.36100000
C      -45.83140000     -30.27160000     -70.39900000
C      -44.00940000     -31.72150000     -70.57720000
H      -46.87730000     -29.84040000     -70.18880000
C      -43.44900000     -30.46070000     -70.97700000
C      -43.05260000     -32.77430000     -70.64520000
C      -41.84170000     -32.36830000     -71.12540000
S      -44.56980000     -29.16780000     -70.93040000
S      -41.85850000     -30.66930000     -71.61200000
H      -40.85610000     -32.76570000     -71.08980000
