40
Properties=species:S:1:pos:R:3 #=T CELL(abcABC):=T 1.889726e+02=T 90.00000=T Traj:=T positionsangstrom=T Step:=T 0=T Bead:=T pbc="F F F"
C      -47.11780000     -34.28860000     -69.95580000
C      -47.49390000     -34.03450000     -71.31770000
C      -46.82490000     -34.59380000     -72.37610000
C      -45.81280000     -35.52510000     -72.17050000
C      -45.45960000     -35.86300000     -70.85590000
C      -46.09330000     -35.23380000     -69.76840000
H      -47.49360000     -33.79900000     -69.05510000
H      -47.20690000     -34.42130000     -73.40180000
H      -44.70980000     -36.56940000     -70.64060000
H      -45.99210000     -35.64080000     -68.79970000
C      -45.03970000     -36.15050000     -73.24960000
H      -45.59960000     -36.99710000     -73.63070000
H      -44.15590000     -36.52610000     -72.78930000
C      -48.64570000     -33.12990000     -71.55730000
H      -48.81680000     -33.05090000     -72.60730000
H      -49.57130000     -33.47380000     -71.04730000
S      -44.64580000     -35.13310000     -74.78130000
S      -48.62030000     -31.48170000     -70.68550000
C      -43.36540000     -33.85730000     -74.41910000
H      -42.44730000     -34.21470000     -74.14570000
H      -43.27380000     -33.25290000     -75.33660000
C      -47.39710000     -30.38440000     -71.66520000
H      -47.46410000     -29.47270000     -71.12890000
H      -47.81440000     -30.27610000     -72.69950000
C      -46.00740000     -31.00890000     -71.85620000
H      -46.13120000     -31.75080000     -72.64280000
H      -45.38920000     -30.27140000     -72.31800000
C      -43.76450000     -32.78870000     -73.38800000
H      -44.79820000     -32.41370000     -73.68500000
H      -43.16380000     -31.84140000     -73.50280000
C      -43.58010000     -33.21420000     -71.96280000
C      -42.56620000     -34.02530000     -71.53910000
C      -44.20730000     -32.53710000     -70.85290000
H      -41.96860000     -34.77360000     -72.09330000
C      -43.63880000     -32.90920000     -69.59510000
C      -45.26740000     -31.58250000     -70.69120000
C      -45.44980000     -31.27070000     -69.35910000
S      -42.44810000     -34.17640000     -69.80270000
S      -44.47670000     -32.20990000     -68.25500000
H      -46.29720000     -30.64400000     -68.91380000
