40
Properties=species:S:1:pos:R:3 #=T CELL(abcABC):=T 1.889726e+02=T 90.00000=T Traj:=T positionsangstrom=T Step:=T 0=T Bead:=T pbc="F F F"
C      -44.10120000     -33.82110000     -69.02440000
C      -45.38880000     -33.16010000     -68.96950000
C      -46.52840000     -33.87040000     -69.37430000
C      -46.42260000     -35.25320000     -69.80830000
C      -45.21450000     -35.87930000     -69.64810000
C      -44.03910000     -35.12750000     -69.45050000
H      -43.20180000     -33.17350000     -68.95270000
H      -47.59130000     -33.45760000     -69.45550000
H      -45.28540000     -36.93030000     -69.78600000
H      -43.04730000     -35.58310000     -69.63820000
C      -47.59440000     -36.00080000     -70.38530000
H      -48.03130000     -36.45780000     -69.52670000
H      -47.27110000     -36.74740000     -71.08720000
C      -45.52990000     -31.72580000     -68.47300000
H      -46.57770000     -31.31770000     -68.56680000
H      -45.20470000     -31.67070000     -67.38140000
S      -48.94700000     -34.89800000     -71.05660000
S      -44.32570000     -30.52410000     -69.25560000
C      -48.29640000     -34.74810000     -72.84930000
H      -47.76740000     -35.73310000     -72.87630000
H      -49.19840000     -34.83100000     -73.49000000
C      -45.40420000     -29.82930000     -70.60800000
H      -44.91950000     -28.89900000     -71.00580000
H      -46.27270000     -29.44400000     -70.09680000
C      -45.84860000     -30.74590000     -71.72470000
H      -46.67100000     -31.43080000     -71.47260000
H      -46.36800000     -30.11650000     -72.50090000
C      -47.40580000     -33.58720000     -73.20760000
H      -47.71250000     -32.73640000     -72.56510000
H      -47.62770000     -33.21600000     -74.21250000
C      -45.91750000     -33.95160000     -73.13150000
C      -45.34760000     -35.11910000     -73.54110000
C      -44.83050000     -33.05480000     -72.69650000
H      -45.81500000     -35.84010000     -74.08350000
C      -43.54900000     -33.61910000     -72.84750000
C      -44.80880000     -31.63570000     -72.35240000
C      -43.53960000     -31.21340000     -72.27380000
S      -43.56100000     -35.22770000     -73.49860000
S      -42.30000000     -32.41850000     -72.66470000
H      -43.11040000     -30.32140000     -71.90790000
