40
Properties=species:S:1:pos:R:3 #=T CELL(abcABC):=T 1.889726e+02=T 90.00000=T Traj:=T positionsangstrom=T Step:=T 0=T Bead:=T pbc="F F F"
C      -42.24580000     -35.25220000     -70.65360000
C      -42.38970000     -34.33900000     -69.65040000
C      -42.29430000     -32.95300000     -70.05030000
C      -42.03340000     -32.58310000     -71.36980000
C      -42.11270000     -33.52320000     -72.36880000
C      -42.10140000     -34.84920000     -71.95700000
H      -42.20340000     -36.36210000     -70.63900000
H      -42.11650000     -32.20200000     -69.26480000
H      -41.92100000     -33.25130000     -73.41560000
H      -42.05360000     -35.55660000     -72.76350000
C      -41.77770000     -31.14450000     -71.79510000
H      -41.02560000     -31.05410000     -72.58690000
H      -41.40710000     -30.57570000     -70.96020000
C      -42.63250000     -34.62320000     -68.19430000
H      -42.61280000     -35.69920000     -67.97190000
H      -41.95630000     -34.17120000     -67.47760000
S      -43.34090000     -30.23010000     -72.27640000
S      -44.29880000     -34.06540000     -67.57940000
C      -44.71430000     -31.32890000     -72.85650000
H      -44.80290000     -31.09570000     -73.90090000
H      -44.48240000     -32.41330000     -72.82100000
C      -45.51770000     -34.94170000     -68.81430000
H      -46.27730000     -35.43800000     -68.22110000
H      -44.90920000     -35.61460000     -69.51170000
C      -46.14600000     -33.89070000     -69.70330000
H      -46.63790000     -33.21930000     -69.00630000
H      -45.36900000     -33.21360000     -70.13610000
C      -46.00090000     -31.23480000     -72.02090000
H      -46.38700000     -30.21570000     -72.13770000
H      -45.80610000     -31.45750000     -70.96490000
C      -47.01460000     -32.25220000     -72.54940000
C      -47.62460000     -31.97400000     -73.72360000
C      -47.49360000     -33.47700000     -71.95120000
H      -47.39780000     -31.14120000     -74.40070000
C      -48.49780000     -34.05880000     -72.72500000
C      -47.18370000     -34.27910000     -70.74030000
C      -47.93310000     -35.45050000     -70.61180000
S      -48.90460000     -33.15790000     -74.16730000
S      -48.99920000     -35.65170000     -72.01680000
H      -47.84900000     -36.29270000     -69.96390000
