40
Properties=species:S:1:pos:R:3 #=T CELL(abcABC):=T 1.889726e+02=T 90.00000=T Traj:=T positionsangstrom=T Step:=T 0=T Bead:=T pbc="F F F"
C      -43.18110000     -35.01030000     -67.73510000
C      -43.59020000     -33.68010000     -68.12700000
C      -43.00430000     -33.15000000     -69.26740000
C      -42.04560000     -33.87430000     -70.00590000
C      -41.67440000     -35.20810000     -69.65670000
C      -42.15840000     -35.70520000     -68.43920000
H      -43.46830000     -35.40760000     -66.69940000
H      -43.36550000     -32.17890000     -69.72290000
H      -40.92780000     -35.75830000     -70.26060000
H      -41.81650000     -36.74150000     -67.95680000
C      -41.35700000     -33.20930000     -71.14290000
H      -40.29290000     -33.14760000     -70.91810000
H      -41.75090000     -32.15200000     -71.11770000
C      -44.64430000     -32.96040000     -67.32560000
H      -44.34290000     -33.01400000     -66.27630000
H      -44.69240000     -31.88900000     -67.68530000
S      -41.66640000     -34.02020000     -72.83120000
S      -46.36650000     -33.66020000     -67.60150000
C      -43.21830000     -33.20040000     -73.47930000
H      -43.15580000     -32.07810000     -73.31910000
H      -43.24570000     -33.47740000     -74.52020000
C      -46.42630000     -33.67460000     -69.42960000
H      -47.32110000     -34.28890000     -69.79400000
H      -45.50000000     -34.26800000     -69.56940000
C      -46.45300000     -32.35070000     -70.28510000
H      -46.92410000     -31.57500000     -69.74400000
H      -45.39870000     -32.03550000     -70.60240000
C      -44.59410000     -33.56330000     -72.79910000
H      -44.62150000     -33.30140000     -71.73150000
H      -44.79320000     -34.62970000     -72.81530000
C      -45.83990000     -33.10070000     -73.55300000
C      -46.07700000     -33.19940000     -74.90150000
C      -47.06650000     -32.78920000     -72.84400000
H      -45.38700000     -33.49830000     -75.66330000
C      -48.21620000     -32.74230000     -73.65200000
C      -47.42190000     -32.43680000     -71.49030000
C      -48.74340000     -32.21260000     -71.35140000
S      -47.78010000     -33.07840000     -75.32740000
S      -49.69950000     -32.30450000     -72.85150000
H      -49.21600000     -31.90060000     -70.41390000
