40
Properties=species:S:1:pos:R:3 #=T CELL(abcABC):=T 1.889726e+02=T 90.00000=T Traj:=T positionsangstrom=T Step:=T 0=T Bead:=T pbc="F F F"
C      -41.82210000     -35.05800000     -70.60910000
C      -42.19710000     -34.05520000     -69.79470000
C      -42.50570000     -32.77580000     -70.25460000
C      -42.29540000     -32.44590000     -71.58350000
C      -41.73470000     -33.41490000     -72.42470000
C      -41.57260000     -34.73630000     -71.95390000
H      -41.79470000     -36.09440000     -70.19550000
H      -42.86120000     -32.06350000     -69.58180000
H      -41.55380000     -33.35800000     -73.48080000
H      -41.26590000     -35.57130000     -72.56420000
C      -42.46590000     -30.97150000     -71.99260000
H      -42.31450000     -30.67690000     -73.06100000
H      -41.67390000     -30.36700000     -71.52740000
C      -42.47520000     -34.33890000     -68.31170000
H      -42.27790000     -35.37150000     -68.16980000
H      -41.86290000     -33.71060000     -67.60250000
S      -44.02150000     -30.29680000     -71.32780000
S      -44.17740000     -33.82450000     -67.65760000
C      -45.13970000     -31.26390000     -72.34740000
H      -45.07230000     -30.85940000     -73.40760000
H      -44.88530000     -32.36690000     -72.50150000
C      -45.24010000     -34.57940000     -68.93540000
H      -46.02970000     -35.22480000     -68.42660000
H      -44.52600000     -35.23710000     -69.51560000
C      -45.89970000     -33.67490000     -69.99730000
H      -46.44160000     -32.85280000     -69.59340000
H      -45.09360000     -33.11510000     -70.51090000
C      -46.65170000     -31.12030000     -71.90690000
H      -47.09450000     -30.18080000     -72.26970000
H      -46.68370000     -31.15740000     -70.77400000
C      -47.50480000     -32.19210000     -72.53150000
C      -48.39410000     -31.99560000     -73.50340000
C      -47.39590000     -33.62140000     -72.12920000
H      -48.61230000     -31.00750000     -73.98850000
C      -48.33130000     -34.45410000     -72.79450000
C      -46.69320000     -34.38650000     -71.08850000
C      -46.95210000     -35.74450000     -71.15980000
S      -49.34570000     -33.43620000     -73.91500000
S      -48.12840000     -36.15040000     -72.49620000
H      -46.32370000     -36.37760000     -70.57530000
