40
Properties=species:S:1:pos:R:3 #=T CELL(abcABC):=T 1.889726e+02=T 90.00000=T Traj:=T positionsangstrom=T Step:=T 0=T Bead:=T pbc="F F F"
C      -41.71340000     -34.99610000     -70.69280000
C      -42.16750000     -34.06210000     -69.76190000
C      -42.48250000     -32.72440000     -70.13310000
C      -42.29240000     -32.33690000     -71.48180000
C      -41.86830000     -33.29730000     -72.39730000
C      -41.49080000     -34.60760000     -71.99480000
H      -41.51310000     -36.04170000     -70.42710000
H      -42.90970000     -32.15150000     -69.31030000
H      -41.63980000     -33.00400000     -73.44370000
H      -41.16450000     -35.32810000     -72.77590000
C      -42.51890000     -30.97150000     -71.98420000
H      -42.32930000     -30.95960000     -73.11630000
H      -41.71100000     -30.36630000     -71.58050000
C      -42.55250000     -34.47440000     -68.35730000
H      -42.68620000     -35.61860000     -68.40860000
H      -41.83150000     -34.20100000     -67.65730000
S      -44.06040000     -30.20110000     -71.54390000
S      -44.20860000     -33.85810000     -67.72420000
C      -45.33510000     -31.17330000     -72.51290000
H      -45.39080000     -30.91240000     -73.57850000
H      -45.06230000     -32.15730000     -72.46800000
C      -45.37210000     -34.75860000     -68.84700000
H      -46.20040000     -34.99020000     -68.27700000
H      -44.95110000     -35.67500000     -69.17490000
C      -45.84750000     -33.78460000     -69.89670000
H      -46.45670000     -32.99730000     -69.41910000
H      -45.01430000     -33.30000000     -70.47560000
C      -46.67130000     -31.05240000     -71.75460000
H      -47.18530000     -30.10930000     -71.91320000
H      -46.45690000     -31.27830000     -70.68010000
C      -47.56370000     -32.22270000     -72.31230000
C      -48.55270000     -31.95910000     -73.21300000
C      -47.38440000     -33.64450000     -72.00040000
H      -48.90120000     -30.98770000     -73.42720000
C      -48.16320000     -34.40820000     -72.86330000
C      -46.70700000     -34.43390000     -70.99870000
C      -46.95380000     -35.79230000     -71.18790000
S      -49.13180000     -33.51680000     -74.02000000
S      -48.08240000     -36.14750000     -72.48910000
H      -46.64440000     -36.55480000     -70.56650000
