40
Properties=species:S:1:pos:R:3 #=T CELL(abcABC):=T 1.889726e+02=T 90.00000=T Traj:=T positionsangstrom=T Step:=T 0=T Bead:=T pbc="F F F"
C      -42.04890000     -34.82160000     -70.77700000
C      -42.44790000     -33.86880000     -69.84360000
C      -42.66320000     -32.54890000     -70.28550000
C      -42.28690000     -32.19750000     -71.59880000
C      -42.01660000     -33.20720000     -72.54260000
C      -41.96020000     -34.48370000     -72.12070000
H      -41.90400000     -35.82950000     -70.46170000
H      -42.90970000     -31.62950000     -69.71300000
H      -41.96970000     -32.92010000     -73.58020000
H      -41.73270000     -35.25550000     -72.85910000
C      -42.37270000     -30.71970000     -71.95910000
H      -42.15070000     -30.54200000     -73.02790000
H      -41.57580000     -30.07410000     -71.42900000
C      -42.50380000     -34.31270000     -68.42350000
H      -42.19090000     -35.26410000     -68.33660000
H      -41.93010000     -33.52580000     -67.79300000
S      -44.02770000     -30.00600000     -71.54650000
S      -44.14560000     -34.31840000     -67.58340000
C      -45.06070000     -31.31260000     -72.35800000
H      -45.00450000     -31.36220000     -73.39790000
H      -44.72640000     -32.29710000     -71.86150000
C      -45.24850000     -34.98770000     -68.85060000
H      -45.99270000     -35.54980000     -68.26660000
H      -44.69090000     -35.63230000     -69.47940000
C      -45.97190000     -33.96380000     -69.78210000
H      -46.65400000     -33.38400000     -69.15840000
H      -45.30830000     -33.23940000     -70.16600000
C      -46.47850000     -31.14920000     -71.83970000
H      -46.95130000     -30.18200000     -72.25650000
H      -46.53490000     -30.97690000     -70.76890000
C      -47.33980000     -32.26000000     -72.36580000
C      -48.19050000     -32.04470000     -73.40080000
C      -47.29980000     -33.71130000     -72.04630000
H      -48.25640000     -31.02470000     -73.79990000
C      -48.19700000     -34.40480000     -72.79630000
C      -46.69380000     -34.50930000     -70.95990000
C      -46.98280000     -35.83990000     -71.10150000
S      -49.03910000     -33.50200000     -74.02940000
S      -48.25400000     -36.07180000     -72.36730000
H      -46.59080000     -36.63470000     -70.43540000
