40
Properties=species:S:1:pos:R:3 #=T CELL(abcABC):=T 1.889726e+02=T 90.00000=T Traj:=T positionsangstrom=T Step:=T 0=T Bead:=T pbc="F F F"
C      -42.12330000     -33.84450000     -67.96330000
C      -43.07540000     -32.92500000     -68.45600000
C      -42.83010000     -32.37210000     -69.73370000
C      -41.79450000     -32.84150000     -70.55980000
C      -40.91400000     -33.86120000     -70.04020000
C      -41.07000000     -34.32990000     -68.71430000
H      -42.28990000     -34.41620000     -67.10140000
H      -43.46030000     -31.59770000     -70.20520000
H      -40.13220000     -34.31010000     -70.65390000
H      -40.44410000     -35.05560000     -68.34950000
C      -41.63370000     -32.37430000     -72.00360000
H      -40.57540000     -32.04920000     -72.08220000
H      -42.20360000     -31.42540000     -72.05190000
C      -44.30510000     -32.59860000     -67.69900000
H      -44.05670000     -32.50270000     -66.62740000
H      -44.86140000     -31.73430000     -68.07780000
S      -42.23470000     -33.43000000     -73.39150000
S      -45.53670000     -34.02020000     -67.62660000
C      -44.03750000     -33.25850000     -73.52550000
H      -44.39230000     -32.22980000     -73.16910000
H      -44.28930000     -33.25180000     -74.62560000
C      -45.93200000     -34.19380000     -69.41730000
H      -46.63380000     -35.09850000     -69.43820000
H      -45.03570000     -34.64510000     -69.84330000
C      -46.40140000     -32.89940000     -70.04900000
H      -46.71680000     -32.21450000     -69.30570000
H      -45.56770000     -32.34210000     -70.46380000
C      -44.94490000     -34.39650000     -72.88410000
H      -44.73590000     -34.47540000     -71.85940000
H      -44.62440000     -35.35430000     -73.16720000
C      -46.37410000     -34.16870000     -73.21420000
C      -46.80510000     -34.33890000     -74.52950000
C      -47.40540000     -33.55640000     -72.40950000
H      -46.22350000     -34.76760000     -75.28140000
C      -48.55980000     -33.35630000     -73.12860000
C      -47.47570000     -32.95640000     -71.07800000
C      -48.65220000     -32.22700000     -70.95480000
S      -48.45340000     -33.82960000     -74.80180000
S      -49.83240000     -32.43370000     -72.35500000
H      -49.06680000     -31.87850000     -69.97240000
