40
Properties=species:S:1:pos:R:3 #=T CELL(abcABC):=T 1.889726e+02=T 90.00000=T Traj:=T positionsangstrom=T Step:=T 0=T Bead:=T pbc="F F F"
C      -42.08490000     -33.89230000     -68.23620000
C      -42.94630000     -32.87650000     -68.64770000
C      -42.75750000     -32.24240000     -69.89580000
C      -41.66580000     -32.56450000     -70.73370000
C      -40.82170000     -33.56580000     -70.22230000
C      -40.94980000     -34.20440000     -69.00950000
H      -42.15040000     -34.26340000     -67.16880000
H      -43.41200000     -31.37030000     -70.19690000
H      -39.98560000     -33.87420000     -70.80210000
H      -40.26290000     -35.04360000     -68.64920000
C      -41.44810000     -32.22560000     -72.17540000
H      -40.47380000     -32.46040000     -72.58350000
H      -41.75550000     -31.25080000     -72.50000000
C      -44.14190000     -32.48050000     -67.70410000
H      -43.81210000     -32.32320000     -66.65540000
H      -44.55920000     -31.54350000     -68.12680000
S      -42.33300000     -33.60220000     -73.22430000
S      -45.47810000     -33.79970000     -67.65740000
C      -44.11770000     -33.11330000     -73.10750000
H      -44.26790000     -32.33520000     -72.33230000
H      -44.32550000     -32.62440000     -74.11610000
C      -46.23480000     -34.04520000     -69.39060000
H      -47.12140000     -34.49570000     -69.29620000
H      -45.55100000     -34.66170000     -69.93160000
C      -46.29430000     -32.67430000     -70.13530000
H      -46.64580000     -31.94920000     -69.42160000
H      -45.29240000     -32.47300000     -70.57580000
C      -44.96980000     -34.41680000     -72.84830000
H      -45.02640000     -34.59160000     -71.73090000
H      -44.46090000     -35.18650000     -73.38450000
C      -46.40270000     -34.23920000     -73.31890000
C      -47.00840000     -34.79860000     -74.45160000
C      -47.32350000     -33.43320000     -72.51500000
H      -46.55610000     -35.35980000     -75.30250000
C      -48.60310000     -33.42240000     -73.10930000
C      -47.34490000     -32.77580000     -71.20990000
C      -48.61260000     -32.24790000     -70.86810000
S      -48.71500000     -34.29320000     -74.67710000
S      -49.78900000     -32.55980000     -72.14300000
H      -48.67650000     -31.57530000     -70.02620000
