40
Properties=species:S:1:pos:R:3 #=T CELL(abcABC):=T 1.889726e+02=T 90.00000=T Traj:=T positionsangstrom=T Step:=T 0=T Bead:=T pbc="F F F"
C      -41.92690000     -33.71940000     -68.11650000
C      -42.85930000     -32.82770000     -68.63600000
C      -42.65750000     -32.40390000     -69.96430000
C      -41.61270000     -33.03960000     -70.79900000
C      -40.80830000     -34.03120000     -70.27450000
C      -40.94220000     -34.27710000     -68.92650000
H      -41.91580000     -33.85820000     -66.98800000
H      -43.32440000     -31.69430000     -70.54290000
H      -40.12350000     -34.50770000     -70.93730000
H      -40.35080000     -34.98300000     -68.51600000
C      -41.41360000     -32.50050000     -72.29240000
H      -40.25680000     -32.48330000     -72.43430000
H      -41.69030000     -31.40190000     -72.24420000
C      -43.96150000     -32.33710000     -67.76670000
H      -43.69900000     -32.26800000     -66.76720000
H      -44.37830000     -31.42780000     -68.07620000
S      -42.28440000     -33.46340000     -73.56340000
S      -45.40190000     -33.46400000     -67.53970000
C      -44.08730000     -33.02650000     -73.55060000
H      -44.21540000     -32.14220000     -72.95740000
H      -44.39350000     -32.78400000     -74.57560000
C      -46.30540000     -33.72530000     -69.16550000
H      -47.32650000     -34.03750000     -68.88240000
H      -45.72180000     -34.61680000     -69.63100000
C      -46.40650000     -32.51220000     -70.07780000
H      -46.75430000     -31.75350000     -69.43580000
H      -45.48250000     -32.30800000     -70.63420000
C      -44.93250000     -34.17010000     -72.92400000
H      -44.79000000     -34.09850000     -71.85710000
H      -44.51540000     -35.05870000     -73.28080000
C      -46.44880000     -34.20360000     -73.26050000
C      -47.03060000     -34.84360000     -74.36150000
C      -47.41080000     -33.50700000     -72.42530000
H      -46.61700000     -35.59820000     -75.01400000
C      -48.70480000     -33.46880000     -73.03230000
C      -47.45820000     -32.80130000     -71.12470000
C      -48.75910000     -32.31870000     -70.82300000
S      -48.71950000     -34.49050000     -74.51440000
S      -49.90340000     -32.66840000     -72.11150000
H      -48.98800000     -31.82370000     -69.85090000
