40
Properties=species:S:1:pos:R:3 #=T CELL(abcABC):=T 1.889726e+02=T 90.00000=T Traj:=T positionsangstrom=T Step:=T 0=T Bead:=T pbc="F F F"
C      -44.47420000     -35.35660000     -68.74650000
C      -44.51180000     -34.08940000     -68.15820000
C      -43.58160000     -33.09800000     -68.58140000
C      -42.71320000     -33.41860000     -69.59540000
C      -42.65830000     -34.67320000     -70.22160000
C      -43.56170000     -35.64010000     -69.76430000
H      -45.14480000     -36.13450000     -68.41330000
H      -43.69750000     -32.09040000     -68.20220000
H      -41.98190000     -34.78700000     -71.07270000
H      -43.47710000     -36.61490000     -70.30160000
C      -41.81250000     -32.31390000     -70.10140000
H      -40.80890000     -32.79020000     -69.99010000
H      -41.73530000     -31.37450000     -69.48180000
C      -45.59740000     -33.53200000     -67.31110000
H      -46.18480000     -34.26070000     -66.86620000
H      -45.13330000     -33.04030000     -66.44890000
S      -42.13540000     -31.94200000     -71.91080000
S      -46.72720000     -32.37440000     -68.12210000
C      -43.77100000     -30.96540000     -71.79370000
H      -43.60070000     -30.27670000     -70.92950000
H      -43.80860000     -30.33970000     -72.67630000
C      -47.23980000     -33.54010000     -69.42270000
H      -48.00570000     -34.20190000     -69.05370000
H      -46.41420000     -34.16440000     -69.82750000
C      -47.88410000     -32.86320000     -70.64210000
H      -48.92040000     -32.76310000     -70.35910000
H      -47.55790000     -31.79620000     -70.70900000
C      -44.98580000     -31.79070000     -71.63810000
H      -45.75660000     -31.07640000     -71.37820000
H      -44.95340000     -32.40280000     -70.76290000
C      -45.44620000     -32.59630000     -72.85490000
C      -44.71690000     -32.69000000     -73.98500000
C      -46.67610000     -33.33690000     -72.85800000
H      -43.75130000     -32.15050000     -74.22650000
C      -46.80300000     -34.06870000     -74.04720000
C      -47.76910000     -33.58470000     -71.93240000
C      -48.55230000     -34.62320000     -72.44050000
S      -45.49120000     -33.75220000     -75.22600000
S      -48.07880000     -35.13740000     -74.07000000
H      -49.34870000     -35.18240000     -71.86110000
