40
Properties=species:S:1:pos:R:3 #=T CELL(abcABC):=T 1.889726e+02=T 90.00000=T Traj:=T positionsangstrom=T Step:=T 0=T Bead:=T pbc="F F F"
C      -42.60540000     -33.98970000     -68.58150000
C      -43.06830000     -32.64780000     -68.84520000
C      -42.77780000     -32.15180000     -70.12850000
C      -41.90590000     -32.88900000     -71.02680000
C      -41.55400000     -34.20040000     -70.72660000
C      -41.86330000     -34.71640000     -69.46080000
H      -42.96680000     -34.34070000     -67.63360000
H      -43.30050000     -31.25730000     -70.46000000
H      -41.09200000     -34.76050000     -71.53320000
H      -41.53310000     -35.79740000     -69.29100000
C      -41.61430000     -32.31950000     -72.42940000
H      -40.59890000     -32.23360000     -72.48810000
H      -42.00060000     -31.33060000     -72.50540000
C      -43.94700000     -31.79860000     -68.03140000
H      -43.32190000     -31.43030000     -67.16680000
H      -44.23280000     -30.86930000     -68.55020000
S      -42.19730000     -33.42150000     -73.81970000
S      -45.42820000     -32.52180000     -67.38720000
C      -43.98450000     -33.14350000     -73.50250000
H      -44.25280000     -32.09940000     -73.31150000
H      -44.52360000     -33.34450000     -74.40900000
C      -46.36140000     -33.21400000     -68.89780000
H      -47.23930000     -33.62650000     -68.44730000
H      -45.79350000     -34.07090000     -69.13690000
C      -46.41990000     -32.28230000     -70.06850000
H      -46.66390000     -31.33390000     -69.65750000
H      -45.45900000     -32.27100000     -70.54680000
C      -44.64700000     -34.11500000     -72.46040000
H      -44.50910000     -33.68410000     -71.46250000
H      -44.14750000     -35.14740000     -72.48040000
C      -46.11800000     -34.33050000     -72.78540000
C      -46.46330000     -35.24800000     -73.79530000
C      -47.21950000     -33.60910000     -72.22580000
H      -45.97130000     -36.02790000     -74.33380000
C      -48.47500000     -33.91990000     -72.88810000
C      -47.43080000     -32.70480000     -71.11090000
C      -48.74380000     -32.35920000     -71.00080000
S      -48.20810000     -35.09510000     -74.18560000
S      -49.85400000     -33.12420000     -72.13730000
H      -49.15450000     -31.68040000     -70.25070000
