40
Properties=species:S:1:pos:R:3 #=T CELL(abcABC):=T 1.889726e+02=T 90.00000=T Traj:=T positionsangstrom=T Step:=T 0=T Bead:=T pbc="F F F"
C      -45.84500000     -34.46440000     -74.50000000
C      -46.34570000     -35.30110000     -73.52670000
C      -47.53450000     -34.92910000     -72.76940000
C      -48.23070000     -33.74460000     -73.11540000
C      -47.67910000     -32.92920000     -74.11370000
C      -46.59240000     -33.28900000     -74.90340000
H      -44.95270000     -34.87260000     -74.97270000
H      -47.85360000     -35.63550000     -72.00050000
H      -48.11650000     -31.96060000     -74.35830000
H      -46.27900000     -32.62760000     -75.74330000
C      -49.46160000     -33.27060000     -72.34320000
H      -50.21960000     -34.05630000     -72.27900000
H      -49.89800000     -32.31740000     -72.73190000
C      -45.63260000     -36.62210000     -73.28090000
H      -46.31790000     -37.43790000     -73.50850000
H      -44.71550000     -36.54660000     -73.93340000
S      -49.10300000     -33.03480000     -70.58720000
S      -45.24270000     -36.82540000     -71.45330000
C      -47.54370000     -32.01800000     -70.59080000
H      -47.59130000     -31.60900000     -71.61050000
H      -47.68030000     -31.16620000     -69.93400000
C      -44.12980000     -35.40940000     -71.33010000
H      -44.53220000     -34.53970000     -71.83700000
H      -43.18860000     -35.63870000     -71.89100000
C      -43.85710000     -35.05690000     -69.81550000
H      -44.85730000     -35.03550000     -69.35930000
H      -43.37320000     -35.94620000     -69.34300000
C      -46.37020000     -32.86210000     -70.22820000
H      -46.42220000     -33.82300000     -70.71240000
H      -46.50230000     -32.94750000     -69.14030000
C      -45.05530000     -32.05420000     -70.35800000
C      -44.99890000     -30.68920000     -70.63870000
C      -43.75470000     -32.56440000     -69.96960000
H      -45.88100000     -30.11010000     -70.93300000
C      -42.73790000     -31.55110000     -69.94910000
C      -43.11520000     -33.83890000     -69.64400000
C      -41.75170000     -33.70860000     -69.46950000
S      -43.41610000     -29.99100000     -70.39200000
S      -41.12210000     -32.08040000     -69.75270000
H      -40.88270000     -34.43850000     -69.49870000
