40
Properties=species:S:1:pos:R:3 #=T CELL(abcABC):=T 1.889726e+02=T 90.00000=T Traj:=T positionsangstrom=T Step:=T 0=T Bead:=T pbc="F F F"
C      -42.62810000     -33.58070000     -68.35160000
C      -42.93470000     -32.29750000     -68.85700000
C      -42.42540000     -31.95760000     -70.12140000
C      -41.75250000     -32.92240000     -70.97270000
C      -41.46030000     -34.18690000     -70.35120000
C      -41.80590000     -34.42740000     -69.06430000
H      -43.04890000     -33.94100000     -67.41160000
H      -42.64340000     -30.95430000     -70.51820000
H      -40.70280000     -34.75220000     -70.83930000
H      -41.44760000     -35.32910000     -68.54980000
C      -41.32740000     -32.55590000     -72.32170000
H      -40.27960000     -32.75280000     -72.36740000
H      -41.37950000     -31.49470000     -72.48910000
C      -43.85660000     -31.33250000     -68.21940000
H      -43.38830000     -30.95670000     -67.32840000
H      -43.91970000     -30.46430000     -68.90710000
S      -42.35510000     -33.50440000     -73.62440000
S      -45.54040000     -31.98820000     -67.72180000
C      -44.13970000     -33.29930000     -73.21960000
H      -44.34230000     -32.30660000     -72.70740000
H      -44.73790000     -33.25460000     -74.13830000
C      -46.13180000     -33.11650000     -69.30520000
H      -46.92100000     -33.72490000     -68.89470000
H      -45.26430000     -33.69550000     -69.53020000
C      -46.52950000     -32.14130000     -70.40440000
H      -46.96340000     -31.30970000     -70.03360000
H      -45.57120000     -31.80250000     -70.75990000
C      -44.69970000     -34.40450000     -72.31080000
H      -44.66380000     -34.09220000     -71.31840000
H      -44.08990000     -35.33030000     -72.44190000
C      -46.13380000     -34.66360000     -72.73610000
C      -46.56460000     -35.67590000     -73.53980000
C      -47.28380000     -33.76890000     -72.34020000
H      -46.17580000     -36.59490000     -73.86000000
C      -48.48450000     -34.16090000     -72.92480000
C      -47.44720000     -32.63140000     -71.45560000
C      -48.74960000     -32.20060000     -71.45970000
S      -48.31430000     -35.60040000     -73.87080000
S      -49.85740000     -33.22130000     -72.34080000
H      -49.20330000     -31.47810000     -70.80210000
