40
Properties=species:S:1:pos:R:3 #=T CELL(abcABC):=T 1.889726e+02=T 90.00000=T Traj:=T positionsangstrom=T Step:=T 0=T Bead:=T pbc="F F F"
C      -43.19060000     -36.98470000     -69.01570000
C      -43.82120000     -35.77880000     -68.66660000
C      -45.20840000     -35.61880000     -69.02580000
C      -45.96270000     -36.62930000     -69.64040000
C      -45.29990000     -37.82200000     -69.97840000
C      -43.94510000     -38.02860000     -69.65570000
H      -42.15170000     -37.19270000     -68.80610000
H      -45.70020000     -34.68320000     -68.67190000
H      -45.83060000     -38.52210000     -70.65860000
H      -43.48320000     -38.96450000     -69.76480000
C      -47.44930000     -36.39770000     -69.84070000
H      -47.82150000     -35.56040000     -69.26790000
H      -48.05630000     -37.24480000     -69.57840000
C      -43.12020000     -34.69280000     -67.85850000
H      -43.12130000     -34.92840000     -66.82970000
H      -42.02510000     -34.60500000     -68.12400000
S      -47.77930000     -36.01060000     -71.60740000
S      -43.86820000     -32.94410000     -67.95540000
C      -47.27930000     -34.23470000     -71.88680000
H      -48.13430000     -33.71240000     -72.42600000
H      -47.35670000     -33.72580000     -70.93150000
C      -43.57760000     -32.59740000     -69.82370000
H      -43.72040000     -33.59720000     -70.22760000
H      -42.48360000     -32.32630000     -69.89810000
C      -44.69030000     -31.60890000     -70.30820000
H      -45.73560000     -32.05520000     -70.27430000
H      -44.69840000     -30.79380000     -69.59940000
C      -45.94610000     -34.00880000     -72.61980000
H      -45.80440000     -34.92000000     -73.28580000
H      -45.13160000     -34.19610000     -71.92700000
C      -45.89610000     -32.68250000     -73.35960000
C      -46.46730000     -32.57950000     -74.64130000
C      -45.34520000     -31.41530000     -72.88000000
H      -46.96880000     -33.39610000     -75.14150000
C      -45.44960000     -30.42470000     -73.88420000
C      -44.59060000     -30.99140000     -71.71410000
C      -44.32750000     -29.63950000     -71.83320000
S      -46.43660000     -30.86090000     -75.25750000
S      -44.73510000     -28.90730000     -73.43610000
H      -43.91180000     -29.02900000     -71.02260000
