40
Properties=species:S:1:pos:R:3 #=T CELL(abcABC):=T 1.889726e+02=T 90.00000=T Traj:=T positionsangstrom=T Step:=T 0=T Bead:=T pbc="F F F"
C      -42.54240000     -33.48160000     -68.31520000
C      -43.03240000     -32.27210000     -68.88330000
C      -42.73230000     -31.99340000     -70.24820000
C      -41.95510000     -32.86470000     -71.00310000
C      -41.46000000     -34.04810000     -70.37410000
C      -41.86580000     -34.39350000     -69.06460000
H      -42.67190000     -33.66170000     -67.24080000
H      -43.04450000     -31.06520000     -70.67310000
H      -41.05430000     -34.81380000     -70.99750000
H      -41.68700000     -35.32630000     -68.56100000
C      -41.47390000     -32.60270000     -72.44260000
H      -40.37810000     -32.87230000     -72.50380000
H      -41.54110000     -31.53210000     -72.73590000
C      -43.89060000     -31.27560000     -68.11510000
H      -43.54660000     -30.99310000     -67.09540000
H      -43.95170000     -30.29520000     -68.62950000
S      -42.26870000     -33.70680000     -73.67930000
S      -45.55920000     -32.08220000     -67.69780000
C      -43.98170000     -33.42400000     -73.23700000
H      -44.05130000     -32.51540000     -72.75690000
H      -44.51630000     -33.37030000     -74.19870000
C      -46.33120000     -32.74980000     -69.17920000
H      -47.38530000     -32.82840000     -68.91170000
H      -46.16860000     -33.77800000     -69.47060000
C      -46.39300000     -32.00910000     -70.58810000
H      -46.72260000     -30.95380000     -70.34130000
H      -45.40790000     -32.10200000     -71.19090000
C      -44.64070000     -34.47910000     -72.35300000
H      -44.43830000     -34.28440000     -71.24030000
H      -44.24160000     -35.49040000     -72.54000000
C      -46.12560000     -34.69420000     -72.61500000
C      -46.50310000     -35.66980000     -73.52550000
C      -47.21060000     -33.80220000     -72.24260000
H      -45.87980000     -36.34990000     -74.01890000
C      -48.45600000     -34.18170000     -72.76390000
C      -47.43200000     -32.62510000     -71.44620000
C      -48.77060000     -32.20300000     -71.34600000
S      -48.23810000     -35.58190000     -73.88980000
S      -49.80110000     -33.16940000     -72.34150000
H      -49.15640000     -31.42230000     -70.72000000
