40
Properties=species:S:1:pos:R:3 #=T CELL(abcABC):=T 1.889726e+02=T 90.00000=T Traj:=T positionsangstrom=T Step:=T 0=T Bead:=T pbc="F F F"
C      -45.12020000     -33.10020000     -66.88410000
C      -45.94680000     -33.75240000     -67.78040000
C      -46.66000000     -32.97430000     -68.70180000
C      -46.48860000     -31.55940000     -68.71890000
C      -45.64000000     -30.89820000     -67.76980000
C      -44.99160000     -31.74000000     -66.84870000
H      -44.55110000     -33.66920000     -66.17970000
H      -47.33880000     -33.38460000     -69.44710000
H      -45.47030000     -29.76600000     -67.82470000
H      -44.16090000     -31.40700000     -66.21460000
C      -47.15750000     -30.67170000     -69.81190000
H      -47.76720000     -29.86480000     -69.29910000
H      -47.77880000     -31.32670000     -70.47450000
C      -46.14480000     -35.23620000     -67.54850000
H      -45.21970000     -35.79850000     -67.31770000
H      -46.90710000     -35.45520000     -66.80010000
S      -45.91630000     -29.70680000     -70.80800000
S      -46.88570000     -36.09960000     -69.03010000
C      -45.13270000     -31.11380000     -71.73890000
H      -44.26510000     -30.80760000     -72.28470000
H      -44.76190000     -31.81930000     -71.01050000
C      -45.47900000     -36.13650000     -70.34760000
H      -45.79090000     -37.05470000     -70.86890000
H      -44.52100000     -36.31130000     -69.92810000
C      -45.53480000     -34.86560000     -71.18120000
H      -46.58120000     -34.49440000     -71.26800000
H      -45.06850000     -34.09210000     -70.57740000
C      -46.19800000     -31.93510000     -72.62670000
H      -47.01740000     -31.23280000     -73.00430000
H      -46.67680000     -32.61590000     -71.94240000
C      -45.43490000     -32.63870000     -73.70580000
C      -45.10640000     -32.10320000     -74.92790000
C      -44.75070000     -33.91200000     -73.53160000
H      -45.24330000     -31.06690000     -75.26640000
C      -43.89620000     -34.27690000     -74.55510000
C      -44.86790000     -35.01410000     -72.56030000
C      -44.01320000     -36.08670000     -72.91530000
S      -43.90540000     -33.08910000     -75.78830000
S      -43.14470000     -35.81200000     -74.43590000
H      -44.04190000     -37.15370000     -72.63570000
