40
Properties=species:S:1:pos:R:3 #=T CELL(abcABC):=T 1.889726e+02=T 90.00000=T Traj:=T positionsangstrom=T Step:=T 0=T Bead:=T pbc="F F F"
C      -44.96660000     -33.24740000     -66.76570000
C      -45.81190000     -33.78860000     -67.72840000
C      -46.39570000     -32.88450000     -68.66910000
C      -46.19680000     -31.47070000     -68.59790000
C      -45.21500000     -30.98040000     -67.70090000
C      -44.73300000     -31.86950000     -66.69270000
H      -44.52280000     -33.90480000     -66.00130000
H      -47.09880000     -33.36170000     -69.33140000
H      -45.21300000     -29.91330000     -67.54690000
H      -44.12850000     -31.44330000     -65.82950000
C      -46.96090000     -30.45080000     -69.42830000
H      -47.23130000     -29.59420000     -68.89050000
H      -47.78830000     -30.92550000     -69.93300000
C      -46.22050000     -35.29490000     -67.73540000
H      -45.30480000     -35.87050000     -67.56990000
H      -46.79720000     -35.39500000     -66.79530000
S      -45.95500000     -29.71930000     -70.87080000
S      -47.07580000     -36.04250000     -69.18370000
C      -45.18870000     -31.11500000     -71.75610000
H      -44.43200000     -30.59980000     -72.36970000
H      -44.61180000     -31.83020000     -71.08330000
C      -45.72610000     -36.12000000     -70.40450000
H      -45.83170000     -37.04730000     -70.98550000
H      -44.73000000     -36.22230000     -69.90650000
C      -45.77170000     -34.92080000     -71.35290000
H      -46.78420000     -34.72990000     -71.66210000
H      -45.33400000     -34.11910000     -70.73420000
C      -46.13450000     -31.89380000     -72.63060000
H      -46.77630000     -31.20590000     -73.17800000
H      -46.75290000     -32.60550000     -72.16000000
C      -45.38930000     -32.59720000     -73.69000000
C      -44.87830000     -31.93210000     -74.76260000
C      -44.83920000     -33.92390000     -73.58780000
H      -45.11010000     -31.02490000     -75.26370000
C      -43.99080000     -34.34130000     -74.62170000
C      -44.92070000     -34.98780000     -72.58140000
C      -44.16320000     -36.09240000     -72.87060000
S      -43.89820000     -33.04290000     -75.80110000
S      -43.33780000     -35.95930000     -74.44890000
H      -44.15540000     -36.97880000     -72.28670000
