40
Properties=species:S:1:pos:R:3 #=T CELL(abcABC):=T 1.889726e+02=T 90.00000=T Traj:=T positionsangstrom=T Step:=T 0=T Bead:=T pbc="F F F"
C      -44.76270000     -33.41930000     -66.86120000
C      -45.81600000     -33.74860000     -67.71700000
C      -46.43330000     -32.75740000     -68.50530000
C      -46.06550000     -31.37510000     -68.47100000
C      -45.02530000     -31.06390000     -67.57920000
C      -44.33730000     -32.05870000     -66.84600000
H      -44.32630000     -34.17120000     -66.17810000
H      -47.25610000     -33.01390000     -69.15780000
H      -44.57220000     -30.14040000     -67.71350000
H      -43.57680000     -31.67650000     -66.12360000
C      -46.87100000     -30.36150000     -69.25850000
H      -47.23420000     -29.57100000     -68.57280000
H      -47.87800000     -30.79790000     -69.54530000
C      -46.21590000     -35.24710000     -67.70530000
H      -45.35190000     -35.87580000     -67.53090000
H      -46.90530000     -35.43400000     -66.83570000
S      -45.97290000     -29.62330000     -70.72620000
S      -47.23760000     -35.89030000     -69.14060000
C      -45.21270000     -31.13190000     -71.60750000
H      -44.29370000     -30.79410000     -72.02550000
H      -45.06860000     -31.81270000     -70.81170000
C      -45.98340000     -36.15570000     -70.53760000
H      -46.28420000     -36.93500000     -71.17850000
H      -45.01400000     -36.37350000     -70.05270000
C      -45.82470000     -34.91930000     -71.39840000
H      -46.83480000     -34.63340000     -71.65860000
H      -45.42640000     -34.01340000     -70.82790000
C      -46.04550000     -31.69840000     -72.74160000
H      -46.45510000     -30.84810000     -73.24340000
H      -46.88990000     -32.21620000     -72.22840000
C      -45.27080000     -32.58120000     -73.70950000
C      -44.85550000     -32.02400000     -74.88880000
C      -44.76300000     -33.94290000     -73.55360000
H      -45.02580000     -31.13030000     -75.47500000
C      -43.99120000     -34.37800000     -74.65850000
C      -44.90470000     -35.04140000     -72.58460000
C      -44.29870000     -36.19170000     -73.01020000
S      -43.86530000     -33.10030000     -75.86710000
S      -43.50320000     -36.08990000     -74.54870000
H      -44.12030000     -37.03990000     -72.38380000
