40
Properties=species:S:1:pos:R:3 #=T CELL(abcABC):=T 1.889726e+02=T 90.00000=T Traj:=T positionsangstrom=T Step:=T 0=T Bead:=T pbc="F F F"
C      -44.50740000     -33.50150000     -67.20620000
C      -45.73990000     -33.74460000     -67.81180000
C      -46.44470000     -32.73250000     -68.44250000
C      -46.02040000     -31.40910000     -68.37770000
C      -44.80830000     -31.16010000     -67.69750000
C      -44.01750000     -32.18510000     -67.17320000
H      -44.00260000     -34.42790000     -66.89850000
H      -47.34570000     -32.81290000     -69.02460000
H      -44.48480000     -30.11670000     -67.53080000
H      -43.07370000     -31.95860000     -66.78860000
C      -46.80590000     -30.37770000     -69.12330000
H      -46.83410000     -29.44830000     -68.52820000
H      -47.75070000     -30.71000000     -69.43110000
C      -46.23660000     -35.19700000     -67.76950000
H      -45.36600000     -35.86490000     -67.88160000
H      -46.77210000     -35.48300000     -66.86870000
S      -45.94750000     -29.78300000     -70.60760000
S      -47.36530000     -35.67290000     -69.10030000
C      -45.17180000     -31.15400000     -71.56650000
H      -44.21710000     -30.75940000     -71.96160000
H      -44.82150000     -31.96470000     -70.89320000
C      -46.27640000     -36.07970000     -70.60390000
H      -46.98090000     -36.70010000     -71.21710000
H      -45.54320000     -36.80730000     -70.26190000
C      -45.80200000     -34.80050000     -71.26280000
H      -46.67730000     -34.15900000     -71.49330000
H      -45.34740000     -34.17310000     -70.50260000
C      -45.96590000     -31.73090000     -72.68690000
H      -46.51370000     -30.94630000     -73.21220000
H      -46.81250000     -32.39070000     -72.34290000
C      -45.12440000     -32.50660000     -73.74230000
C      -44.66740000     -31.99140000     -74.93970000
C      -44.86680000     -33.90780000     -73.57330000
H      -44.69250000     -30.95700000     -75.37770000
C      -44.14850000     -34.42160000     -74.69530000
C      -45.06720000     -34.95940000     -72.55760000
C      -44.48680000     -36.12700000     -72.91610000
S      -43.85450000     -33.25110000     -75.90670000
S      -43.62550000     -36.02780000     -74.43890000
H      -44.65940000     -37.11750000     -72.51180000
