40
Properties=species:S:1:pos:R:3 #=T CELL(abcABC):=T 1.889726e+02=T 90.00000=T Traj:=T positionsangstrom=T Step:=T 0=T Bead:=T pbc="F F F"
C      -44.24620000     -33.59830000     -67.53230000
C      -45.59750000     -33.89320000     -67.86630000
C      -46.37390000     -32.77500000     -68.27180000
C      -45.87220000     -31.52230000     -68.48500000
C      -44.55880000     -31.26860000     -68.11260000
C      -43.74100000     -32.29520000     -67.57910000
H      -43.60130000     -34.38300000     -67.16810000
H      -47.42940000     -32.99610000     -68.43470000
H      -44.20340000     -30.22120000     -68.10470000
H      -42.71470000     -32.03990000     -67.37280000
C      -46.71950000     -30.41610000     -69.09010000
H      -46.75390000     -29.57040000     -68.33800000
H      -47.73880000     -30.71900000     -69.36980000
C      -46.13880000     -35.27110000     -67.82310000
H      -45.26890000     -35.95940000     -68.02840000
H      -46.48470000     -35.47050000     -66.79870000
S      -45.91220000     -29.77090000     -70.64530000
S      -47.51460000     -35.65650000     -69.06080000
C      -45.24890000     -31.31850000     -71.37290000
H      -44.16390000     -31.21760000     -71.47590000
H      -45.44190000     -32.17540000     -70.71410000
C      -46.56310000     -35.85340000     -70.63830000
H      -47.21190000     -36.50790000     -71.28270000
H      -45.65220000     -36.42850000     -70.44840000
C      -45.92470000     -34.58860000     -71.25100000
H      -46.67020000     -33.93820000     -71.68840000
H      -45.28980000     -34.10410000     -70.53140000
C      -45.93070000     -31.54770000     -72.70480000
H      -46.00970000     -30.61490000     -73.23790000
H      -46.95000000     -31.79790000     -72.45030000
C      -45.19260000     -32.52060000     -73.66290000
C      -44.76780000     -32.02960000     -74.87650000
C      -44.93070000     -33.92320000     -73.48880000
H      -44.89830000     -30.97440000     -75.07680000
C      -44.23580000     -34.38630000     -74.58570000
C      -45.10590000     -34.91840000     -72.49870000
C      -44.59110000     -36.12540000     -72.80210000
S      -43.79860000     -33.15660000     -75.76630000
S      -43.74300000     -36.07080000     -74.39380000
H      -44.81730000     -37.06390000     -72.25610000
