40
Properties=species:S:1:pos:R:3 #=T CELL(abcABC):=T 1.889726e+02=T 90.00000=T Traj:=T positionsangstrom=T Step:=T 0=T Bead:=T pbc="F F F"
C      -44.06320000     -33.91740000     -67.92140000
C      -45.47700000     -33.94780000     -68.02470000
C      -46.08860000     -32.82860000     -68.49460000
C      -45.43030000     -31.58460000     -68.63900000
C      -44.04700000     -31.54310000     -68.45160000
C      -43.34990000     -32.72840000     -68.16000000
H      -43.56500000     -34.84550000     -67.70950000
H      -47.13930000     -32.82210000     -68.60840000
H      -43.57720000     -30.57960000     -68.44170000
H      -42.25350000     -32.89730000     -67.98160000
C      -46.29500000     -30.44420000     -69.05180000
H      -46.18810000     -29.61410000     -68.33490000
H      -47.36430000     -30.72750000     -69.12970000
C      -46.15740000     -35.21650000     -67.83960000
H      -45.39690000     -36.05300000     -67.94110000
H      -46.59170000     -35.31930000     -66.80290000
S      -45.91170000     -29.58620000     -70.64230000
S      -47.60430000     -35.59590000     -68.89300000
C      -44.98040000     -30.86350000     -71.59540000
H      -44.22520000     -30.40790000     -72.29610000
H      -44.38980000     -31.48570000     -70.89700000
C      -46.84390000     -35.87120000     -70.54500000
H      -47.52700000     -36.42530000     -71.18500000
H      -46.09560000     -36.68880000     -70.29520000
C      -46.24940000     -34.58850000     -71.21780000
H      -47.12480000     -34.01220000     -71.37980000
H      -45.68550000     -33.92930000     -70.60660000
C      -46.03660000     -31.55730000     -72.54620000
H      -46.59700000     -30.78930000     -73.12550000
H      -46.79400000     -32.19260000     -72.04500000
C      -45.31170000     -32.47190000     -73.57700000
C      -44.70920000     -31.90990000     -74.68960000
C      -45.14210000     -33.89970000     -73.43690000
H      -44.64850000     -30.82700000     -74.86850000
C      -44.25290000     -34.37320000     -74.39210000
C      -45.46710000     -34.88850000     -72.46350000
C      -44.89090000     -36.11270000     -72.73040000
S      -43.80900000     -33.19910000     -75.62040000
S      -44.03530000     -36.07400000     -74.25300000
H      -44.94600000     -37.01100000     -72.15950000
