40
Properties=species:S:1:pos:R:3 #=T CELL(abcABC):=T 1.889726e+02=T 90.00000=T Traj:=T positionsangstrom=T Step:=T 0=T Bead:=T pbc="F F F"
C      -46.68940000     -33.92040000     -74.83870000
C      -46.81870000     -34.90680000     -73.87550000
C      -47.76380000     -34.77150000     -72.82340000
C      -48.59990000     -33.67600000     -72.74850000
C      -48.33100000     -32.62040000     -73.68750000
C      -47.36320000     -32.65210000     -74.72230000
H      -45.98150000     -34.00820000     -75.65700000
H      -47.90340000     -35.52490000     -72.05370000
H      -48.99210000     -31.77090000     -73.57990000
H      -47.11040000     -31.81540000     -75.40110000
C      -49.69880000     -33.43690000     -71.74700000
H      -50.40500000     -34.30450000     -71.63760000
H      -50.32850000     -32.60930000     -72.08860000
C      -46.11920000     -36.26610000     -73.91640000
H      -46.85900000     -37.03150000     -73.95310000
H      -45.49140000     -36.25240000     -74.81740000
S      -48.92290000     -33.21890000     -70.10160000
S      -45.26820000     -36.74990000     -72.26670000
C      -47.23560000     -32.21370000     -70.30130000
H      -47.10070000     -31.82850000     -71.34030000
H      -47.35730000     -31.32890000     -69.73680000
C      -44.07950000     -35.38680000     -72.08130000
H      -44.49380000     -34.43050000     -72.37470000
H      -43.26060000     -35.52820000     -72.82160000
C      -43.53220000     -35.25360000     -70.65510000
H      -44.25680000     -35.44080000     -69.96200000
H      -42.81460000     -36.06290000     -70.65080000
C      -46.01820000     -33.10070000     -69.90910000
H      -45.87070000     -33.90450000     -70.64920000
H      -46.18820000     -33.58470000     -68.95050000
C      -44.80110000     -32.19320000     -69.91920000
C      -44.84430000     -30.83360000     -69.79350000
C      -43.45310000     -32.68930000     -69.89320000
H      -45.74210000     -30.19300000     -69.85720000
C      -42.48050000     -31.64230000     -69.72190000
C      -42.79710000     -33.93070000     -70.35210000
C      -41.42070000     -33.86360000     -70.33260000
S      -43.27750000     -30.09440000     -69.54340000
S      -40.83940000     -32.24070000     -69.91380000
H      -40.62450000     -34.50900000     -70.48990000
