40
Properties=species:S:1:pos:R:3 #=T CELL(abcABC):=T 1.889726e+02=T 90.00000=T Traj:=T positionsangstrom=T Step:=T 0=T Bead:=T pbc="F F F"
C      -46.31410000     -33.68860000     -74.64550000
C      -46.73440000     -34.74570000     -73.80650000
C      -47.80910000     -34.59330000     -72.95700000
C      -48.45050000     -33.32710000     -72.80720000
C      -47.90540000     -32.18980000     -73.55000000
C      -46.83650000     -32.41890000     -74.44300000
H      -45.44050000     -33.93810000     -75.31870000
H      -48.21640000     -35.40400000     -72.32960000
H      -48.20380000     -31.12970000     -73.34300000
H      -46.44750000     -31.54470000     -75.03330000
C      -49.54450000     -33.29860000     -71.79050000
H      -50.17730000     -34.14670000     -71.93570000
H      -50.28990000     -32.46600000     -71.82810000
C      -46.02940000     -36.10290000     -73.97550000
H      -46.63140000     -36.95380000     -74.34760000
H      -45.24180000     -36.02170000     -74.69820000
S      -48.92700000     -33.57540000     -70.03310000
S      -45.31290000     -36.78410000     -72.41210000
C      -47.48550000     -32.39130000     -69.85510000
H      -47.46920000     -31.71400000     -70.59610000
H      -47.57160000     -31.98560000     -68.87270000
C      -44.13800000     -35.44820000     -71.95780000
H      -44.64130000     -34.52220000     -72.24770000
H      -43.22780000     -35.49950000     -72.58950000
C      -43.67330000     -35.31730000     -70.51880000
H      -44.53410000     -35.44160000     -69.83590000
H      -43.01360000     -36.15840000     -70.41550000
C      -46.10830000     -33.20570000     -69.87260000
H      -45.97760000     -33.73510000     -70.79490000
H      -46.18770000     -33.95610000     -69.06430000
C      -44.94620000     -32.25570000     -69.79780000
C      -44.91090000     -30.91360000     -69.44030000
C      -43.57620000     -32.71240000     -70.08970000
H      -45.69370000     -30.29260000     -69.13600000
C      -42.65130000     -31.71220000     -69.96500000
C      -42.91880000     -34.00960000     -70.32020000
C      -41.55570000     -33.86030000     -70.43710000
S      -43.21850000     -30.20630000     -69.48950000
S      -41.04400000     -32.19280000     -70.38330000
H      -41.09100000     -34.65530000     -70.94520000
