40
Properties=species:S:1:pos:R:3 #=T CELL(abcABC):=T 1.889726e+02=T 90.00000=T Traj:=T positionsangstrom=T Step:=T 0=T Bead:=T pbc="F F F"
C      -46.22040000     -33.65650000     -74.26380000
C      -46.74400000     -34.78560000     -73.58590000
C      -47.71790000     -34.58630000     -72.60190000
C      -48.22290000     -33.31150000     -72.42390000
C      -47.66060000     -32.17300000     -73.07270000
C      -46.70270000     -32.39750000     -74.05690000
H      -45.51960000     -33.84000000     -75.11450000
H      -48.13890000     -35.48850000     -72.09850000
H      -47.82620000     -31.12090000     -72.83930000
H      -46.23070000     -31.51380000     -74.59510000
C      -49.48930000     -33.03050000     -71.56450000
H      -50.36880000     -33.60850000     -71.87840000
H      -49.73880000     -31.96180000     -71.57630000
C      -46.27930000     -36.19110000     -73.78680000
H      -47.05830000     -36.91080000     -74.00260000
H      -45.59380000     -36.19390000     -74.64840000
S      -48.92490000     -33.52150000     -69.85760000
S      -45.33890000     -36.80390000     -72.28760000
C      -47.37560000     -32.56880000     -69.70750000
H      -47.44870000     -31.77640000     -70.36930000
H      -47.31540000     -32.23880000     -68.73040000
C      -44.04060000     -35.47740000     -72.08970000
H      -44.49330000     -34.53750000     -72.46230000
H      -43.26610000     -35.78170000     -72.78360000
C      -43.55820000     -35.42760000     -70.60340000
H      -44.44030000     -35.41370000     -69.92530000
H      -42.93160000     -36.26390000     -70.41450000
C      -46.08550000     -33.32170000     -69.99530000
H      -46.17100000     -33.86160000     -70.96590000
H      -46.02320000     -34.12000000     -69.25840000
C      -44.92950000     -32.35510000     -70.01310000
C      -45.05080000     -30.99620000     -69.97970000
C      -43.52830000     -32.75840000     -70.25190000
H      -45.96480000     -30.46680000     -69.84650000
C      -42.71100000     -31.66050000     -70.34220000
C      -42.84290000     -34.06070000     -70.40640000
C      -41.50820000     -33.89030000     -70.56790000
S      -43.54190000     -30.11800000     -69.98650000
S      -41.06730000     -32.14090000     -70.56250000
H      -40.70120000     -34.55850000     -70.77030000
