40
Properties=species:S:1:pos:R:3 #=T CELL(abcABC):=T 1.889726e+02=T 90.00000=T Traj:=T positionsangstrom=T Step:=T 0=T Bead:=T pbc="F F F"
C      -46.30900000     -33.68200000     -74.41010000
C      -46.75030000     -34.78870000     -73.70040000
C      -47.88430000     -34.61340000     -72.91770000
C      -48.38840000     -33.33340000     -72.58920000
C      -47.92820000     -32.21990000     -73.29530000
C      -46.85790000     -32.42530000     -74.20910000
H      -45.35700000     -33.70930000     -75.01940000
H      -48.21310000     -35.54100000     -72.44270000
H      -48.37310000     -31.22650000     -73.24150000
H      -46.49160000     -31.51910000     -74.83210000
C      -49.39160000     -33.18000000     -71.42790000
H      -50.30730000     -33.81240000     -71.56560000
H      -49.70460000     -32.14710000     -71.31590000
C      -46.16480000     -36.15000000     -73.80980000
H      -46.91120000     -36.92110000     -74.12530000
H      -45.37760000     -36.20990000     -74.57400000
S      -48.81530000     -33.67130000     -69.75060000
S      -45.48410000     -36.74510000     -72.14120000
C      -47.41120000     -32.45710000     -69.37660000
H      -47.74960000     -31.56980000     -70.06720000
H      -47.42160000     -32.18900000     -68.25110000
C      -44.13510000     -35.53990000     -72.02090000
H      -44.53190000     -34.58050000     -72.31460000
H      -43.24990000     -35.73830000     -72.67850000
C      -43.65630000     -35.34110000     -70.62870000
H      -44.54090000     -35.11600000     -70.06540000
H      -43.29090000     -36.26700000     -70.13270000
C      -46.13450000     -33.09030000     -69.85060000
H      -46.40590000     -33.55210000     -70.79590000
H      -45.82380000     -33.87170000     -69.09460000
C      -44.88260000     -32.24100000     -69.94500000
C      -44.90510000     -30.88320000     -69.85210000
C      -43.51430000     -32.78530000     -70.28890000
H      -45.78870000     -30.36820000     -69.58460000
C      -42.63970000     -31.71630000     -70.32610000
C      -42.85940000     -34.05710000     -70.51010000
C      -41.49480000     -33.88150000     -70.67200000
S      -43.33610000     -30.11700000     -70.09740000
S      -40.96620000     -32.17130000     -70.55740000
H      -40.70130000     -34.62060000     -70.71720000
