40
Properties=species:S:1:pos:R:3 #=T CELL(abcABC):=T 1.889726e+02=T 90.00000=T Traj:=T positionsangstrom=T Step:=T 0=T Bead:=T pbc="F F F"
C      -46.71770000     -34.09620000     -74.50980000
C      -46.87590000     -35.08990000     -73.55090000
C      -47.80020000     -34.85370000     -72.48720000
C      -48.47820000     -33.62540000     -72.42970000
C      -48.42820000     -32.76610000     -73.53090000
C      -47.57680000     -33.01390000     -74.62030000
H      -45.87060000     -34.24360000     -75.19810000
H      -47.79410000     -35.64210000     -71.65620000
H      -49.24500000     -32.06070000     -73.52270000
H      -47.48890000     -32.27210000     -75.40100000
C      -49.52650000     -33.29160000     -71.41770000
H      -50.48140000     -33.90350000     -71.39250000
H      -49.76200000     -32.25440000     -71.73190000
C      -46.14250000     -36.42320000     -73.66330000
H      -46.85750000     -37.20080000     -73.81150000
H      -45.51410000     -36.43730000     -74.53320000
S      -48.93890000     -33.16560000     -69.67190000
S      -45.07110000     -36.91770000     -72.24160000
C      -47.30840000     -32.20000000     -69.93040000
H      -47.65000000     -31.67230000     -70.85220000
H      -47.31560000     -31.51150000     -69.06400000
C      -44.19760000     -35.27800000     -72.04390000
H      -44.96610000     -34.48290000     -72.16890000
H      -43.36410000     -35.11800000     -72.72290000
C      -43.61790000     -35.16820000     -70.62950000
H      -44.31940000     -35.36930000     -69.76720000
H      -42.86180000     -35.89540000     -70.33150000
C      -45.98730000     -32.94280000     -69.97450000
H      -45.93210000     -33.63080000     -70.78740000
H      -46.06610000     -33.50610000     -69.09750000
C      -44.78550000     -32.05620000     -70.09790000
C      -44.79210000     -30.69820000     -69.95460000
C      -43.47170000     -32.62160000     -70.24660000
H      -45.63490000     -30.03320000     -69.84710000
C      -42.49980000     -31.58410000     -70.25510000
C      -42.86330000     -33.93330000     -70.41910000
C      -41.48880000     -33.82100000     -70.55440000
S      -43.18220000     -29.98980000     -69.99740000
S      -40.88800000     -32.19780000     -70.39530000
H      -40.80070000     -34.68360000     -70.79800000
