40
Properties=species:S:1:pos:R:3 #=T CELL(abcABC):=T 1.889726e+02=T 90.00000=T Traj:=T positionsangstrom=T Step:=T 0=T Bead:=T pbc="F F F"
C      -46.84050000     -34.38930000     -74.63680000
C      -47.01050000     -35.28580000     -73.59980000
C      -47.77770000     -34.92230000     -72.44560000
C      -48.47270000     -33.70010000     -72.45540000
C      -48.41230000     -32.84200000     -73.54680000
C      -47.53260000     -33.15270000     -74.62740000
H      -46.23740000     -34.86640000     -75.42840000
H      -47.98620000     -35.62130000     -71.62570000
H      -48.74300000     -31.82390000     -73.53450000
H      -47.39160000     -32.44010000     -75.51870000
C      -49.47330000     -33.45630000     -71.41530000
H      -49.83570000     -34.41070000     -71.11740000
H      -50.30330000     -32.91970000     -71.78660000
C      -46.26180000     -36.61050000     -73.58120000
H      -47.06350000     -37.40130000     -73.49040000
H      -45.67360000     -36.69690000     -74.53580000
S      -48.94250000     -32.92920000     -69.75500000
S      -45.09650000     -36.85690000     -72.18390000
C      -47.36810000     -31.86530000     -69.98170000
H      -47.39490000     -31.18990000     -70.86110000
H      -47.26480000     -31.17160000     -69.18400000
C      -43.93060000     -35.44530000     -72.11980000
H      -44.35580000     -34.54250000     -72.49470000
H      -43.01310000     -35.54600000     -72.69160000
C      -43.55140000     -35.20220000     -70.59260000
H      -44.40200000     -35.24470000     -69.96590000
H      -42.96600000     -36.09830000     -70.43800000
C      -46.12220000     -32.78970000     -69.92210000
H      -46.08880000     -33.47480000     -70.80000000
H      -46.28410000     -33.51640000     -69.01590000
C      -44.77060000     -32.04710000     -70.01360000
C      -44.83880000     -30.67960000     -69.91730000
C      -43.44150000     -32.58930000     -70.17990000
H      -45.65380000     -29.99520000     -69.89460000
C      -42.47080000     -31.56960000     -70.25650000
C      -42.83050000     -33.93270000     -70.37670000
C      -41.47310000     -33.81750000     -70.55010000
S      -43.19080000     -29.98340000     -70.05520000
S      -40.85740000     -32.13920000     -70.32680000
H      -40.79840000     -34.54180000     -70.98640000
