40
Properties=species:S:1:pos:R:3 #=T CELL(abcABC):=T 1.889726e+02=T 90.00000=T Traj:=T positionsangstrom=T Step:=T 0=T Bead:=T pbc="F F F"
C      -46.42520000     -34.46570000     -74.22580000
C      -47.04320000     -35.39800000     -73.40460000
C      -48.05840000     -34.97870000     -72.53580000
C      -48.47490000     -33.65380000     -72.56090000
C      -47.95480000     -32.72320000     -73.44160000
C      -46.93530000     -33.16060000     -74.29570000
H      -45.47510000     -34.63310000     -74.78650000
H      -48.51310000     -35.74780000     -71.82410000
H      -48.36450000     -31.67110000     -73.50530000
H      -46.38320000     -32.52980000     -75.00070000
C      -49.47620000     -33.29070000     -71.51090000
H      -50.27970000     -34.06000000     -71.48860000
H      -49.95110000     -32.35930000     -71.76680000
C      -46.46330000     -36.78000000     -73.29620000
H      -47.19110000     -37.58990000     -73.20420000
H      -45.86120000     -37.08330000     -74.20740000
S      -48.85030000     -33.07950000     -69.79270000
S      -45.41110000     -36.93380000     -71.83820000
C      -47.34510000     -32.05050000     -69.89420000
H      -47.72530000     -31.15510000     -70.45640000
H      -47.03980000     -31.75660000     -68.84320000
C      -44.27820000     -35.49060000     -71.89190000
H      -44.89630000     -34.66980000     -72.24620000
H      -43.52980000     -35.74150000     -72.66490000
C      -43.64000000     -35.20090000     -70.57320000
H      -44.41810000     -35.17620000     -69.85140000
H      -42.82290000     -35.95380000     -70.46500000
C      -46.11260000     -32.72970000     -70.62100000
H      -46.38350000     -32.84310000     -71.67770000
H      -45.91610000     -33.70690000     -70.16090000
C      -44.82760000     -31.86160000     -70.55150000
C      -44.76130000     -30.47840000     -70.29040000
C      -43.45000000     -32.46450000     -70.49400000
H      -45.58530000     -29.77180000     -70.40700000
C      -42.48230000     -31.54010000     -70.32790000
C      -42.93810000     -33.78040000     -70.59260000
C      -41.57160000     -33.78420000     -70.43540000
S      -43.10560000     -29.90000000     -70.20930000
S      -40.85540000     -32.18300000     -70.21840000
H      -40.88340000     -34.63510000     -70.51900000
