40
Properties=species:S:1:pos:R:3 #=T CELL(abcABC):=T 1.889726e+02=T 90.00000=T Traj:=T positionsangstrom=T Step:=T 0=T Bead:=T pbc="F F F"
C      -46.50410000     -34.42270000     -74.32880000
C      -46.92750000     -35.28900000     -73.30830000
C      -47.92140000     -34.83810000     -72.40320000
C      -48.37210000     -33.45600000     -72.55640000
C      -47.95180000     -32.66880000     -73.63310000
C      -46.95840000     -33.12670000     -74.49390000
H      -45.84380000     -34.79590000     -75.08200000
H      -48.34470000     -35.46010000     -71.62780000
H      -48.26130000     -31.59890000     -73.71360000
H      -46.64920000     -32.51980000     -75.40010000
C      -49.41540000     -32.92570000     -71.60620000
H      -50.42770000     -33.30530000     -71.70830000
H      -49.41510000     -31.84760000     -71.73830000
C      -46.42390000     -36.71100000     -73.14870000
H      -47.27220000     -37.39940000     -73.13340000
H      -45.82520000     -36.91450000     -74.01680000
S      -48.83130000     -33.15670000     -69.87040000
S      -45.32750000     -36.92940000     -71.65090000
C      -47.28750000     -32.08950000     -69.89300000
H      -47.47500000     -31.21730000     -70.44410000
H      -47.08270000     -31.58130000     -68.94060000
C      -44.16240000     -35.54970000     -71.83070000
H      -44.73600000     -34.64180000     -72.16780000
H      -43.34590000     -35.84250000     -72.49520000
C      -43.54910000     -35.18550000     -70.53100000
H      -44.25430000     -35.20560000     -69.68170000
H      -42.82260000     -35.96710000     -70.25630000
C      -46.05260000     -32.94660000     -70.37930000
H      -46.07060000     -33.63220000     -71.27860000
H      -45.98980000     -33.75600000     -69.61640000
C      -44.87430000     -32.11020000     -70.51940000
C      -44.93320000     -30.74360000     -70.60280000
C      -43.49120000     -32.57710000     -70.40480000
H      -45.83590000     -30.25720000     -70.77140000
C      -42.56240000     -31.55300000     -70.29120000
C      -42.83970000     -33.86670000     -70.46740000
C      -41.48830000     -33.75710000     -70.31040000
S      -43.38860000     -29.98510000     -70.48070000
S      -40.89510000     -32.04710000     -70.16920000
H      -40.79230000     -34.61680000     -70.22600000
