40
Properties=species:S:1:pos:R:3 #=T CELL(abcABC):=T 1.889726e+02=T 90.00000=T Traj:=T positionsangstrom=T Step:=T 0=T Bead:=T pbc="F F F"
C      -42.26580000     -30.59160000     -70.52930000
C      -43.41690000     -30.85180000     -69.75060000
C      -44.70230000     -30.49680000     -70.21000000
C      -44.94340000     -30.31280000     -71.56970000
C      -43.83630000     -30.30140000     -72.41910000
C      -42.56120000     -30.33960000     -71.86780000
H      -41.34360000     -30.58700000     -70.06790000
H      -45.56530000     -30.51600000     -69.56090000
H      -44.02850000     -30.02600000     -73.43770000
H      -41.69480000     -30.22500000     -72.49710000
C      -46.18300000     -29.83390000     -72.20900000
H      -46.04890000     -29.66490000     -73.29430000
H      -46.47930000     -28.87670000     -71.74630000
C      -43.18450000     -31.33190000     -68.32490000
H      -42.19200000     -31.88080000     -68.31440000
H      -43.11620000     -30.57360000     -67.59030000
S      -47.71910000     -30.83190000     -71.91010000
S      -44.49000000     -32.60830000     -67.80920000
C      -47.24350000     -32.44770000     -72.57520000
H      -47.75830000     -32.60290000     -73.56180000
H      -46.13460000     -32.55080000     -72.79970000
C      -44.13200000     -34.05030000     -68.87390000
H      -44.45320000     -34.96760000     -68.42370000
H      -43.00860000     -34.11090000     -69.07400000
C      -44.78530000     -33.74620000     -70.25680000
H      -45.82210000     -33.45400000     -70.03870000
H      -44.30370000     -32.94120000     -70.72080000
C      -47.76940000     -33.65910000     -71.66870000
H      -48.88380000     -33.65090000     -71.68770000
H      -47.44970000     -33.55550000     -70.68170000
C      -47.31320000     -34.91290000     -72.21650000
C      -48.05010000     -35.81720000     -72.95410000
C      -45.93750000     -35.37150000     -71.96150000
H      -49.05810000     -35.71600000     -73.31640000
C      -45.69640000     -36.61740000     -72.53310000
C      -44.78480000     -34.93330000     -71.19930000
C      -43.73430000     -35.78440000     -71.32540000
S      -46.98830000     -37.12370000     -73.63510000
S      -44.07240000     -37.11970000     -72.36660000
H      -42.70000000     -35.56950000     -71.01860000
