40
Properties=species:S:1:pos:R:3 #=T CELL(abcABC):=T 1.889726e+02=T 90.00000=T Traj:=T positionsangstrom=T Step:=T 0=T Bead:=T pbc="F F F"
C      -43.03160000     -30.33690000     -70.61650000
C      -44.14590000     -30.47560000     -69.71540000
C      -45.49790000     -30.26660000     -70.14530000
C      -45.67720000     -30.11580000     -71.55760000
C      -44.59280000     -30.04450000     -72.45550000
C      -43.25850000     -30.22490000     -71.99120000
H      -42.14510000     -30.52380000     -70.06650000
H      -46.37580000     -30.37600000     -69.54770000
H      -44.84250000     -29.84420000     -73.49420000
H      -42.38870000     -30.15220000     -72.65620000
C      -47.09980000     -29.82860000     -71.96690000
H      -47.22700000     -29.51020000     -72.99170000
H      -47.61600000     -29.03330000     -71.35640000
C      -43.85500000     -30.74770000     -68.26640000
H      -42.82520000     -30.55110000     -67.99960000
H      -44.44280000     -30.04150000     -67.73840000
S      -48.20190000     -31.28770000     -71.76750000
S      -44.42600000     -32.36970000     -67.74650000
C      -47.26390000     -32.64070000     -72.61180000
H      -47.50200000     -32.72520000     -73.68780000
H      -46.19450000     -32.35610000     -72.40990000
C      -43.77650000     -33.36470000     -69.25900000
H      -43.48700000     -34.30220000     -68.83480000
H      -42.82410000     -32.90620000     -69.49580000
C      -44.61720000     -33.56500000     -70.53200000
H      -45.72180000     -33.43030000     -70.35110000
H      -44.36860000     -32.86580000     -71.32100000
C      -47.55690000     -34.03670000     -71.92260000
H      -48.61420000     -34.39060000     -72.11030000
H      -47.37720000     -33.98000000     -70.83740000
C      -46.75820000     -35.15530000     -72.43490000
C      -47.35180000     -36.09980000     -73.21520000
C      -45.40790000     -35.45740000     -72.08410000
H      -48.41320000     -36.13020000     -73.49720000
C      -45.04390000     -36.76850000     -72.51310000
C      -44.35800000     -34.95610000     -71.21460000
C      -43.18310000     -35.65140000     -71.21100000
S      -46.30300000     -37.53550000     -73.52320000
S      -43.46910000     -37.19990000     -72.17120000
H      -42.27270000     -35.61670000     -70.63830000
