40
Properties=species:S:1:pos:R:3 #=T CELL(abcABC):=T 1.889726e+02=T 90.00000=T Traj:=T positionsangstrom=T Step:=T 0=T Bead:=T pbc="F F F"
C      -43.32080000     -35.38230000     -69.22460000
C      -44.14180000     -34.52410000     -68.44910000
C      -43.93860000     -33.15500000     -68.38590000
C      -43.03600000     -32.50710000     -69.25090000
C      -42.31130000     -33.32830000     -70.08420000
C      -42.45710000     -34.75100000     -70.13850000
H      -43.44760000     -36.43150000     -69.10050000
H      -44.39960000     -32.63090000     -67.59920000
H      -41.74850000     -32.86820000     -70.95530000
H      -42.13240000     -35.38110000     -70.90510000
C      -43.04370000     -30.94550000     -69.36430000
H      -42.27670000     -30.61150000     -70.10710000
H      -42.77470000     -30.57170000     -68.36670000
C      -45.21630000     -35.07670000     -67.55060000
H      -45.09980000     -36.17910000     -67.35990000
H      -45.07860000     -34.71230000     -66.51110000
S      -44.77580000     -30.34240000     -69.64490000
S      -46.88660000     -34.66550000     -68.10210000
C      -44.88290000     -31.03030000     -71.32970000
H      -44.15810000     -30.66300000     -71.94500000
H      -44.70540000     -32.09700000     -71.25340000
C      -46.75880000     -35.21550000     -69.87230000
H      -47.67030000     -35.70830000     -70.08920000
H      -45.81470000     -35.80590000     -70.08200000
C      -46.73810000     -33.98920000     -70.80100000
H      -47.62680000     -33.40770000     -70.60930000
H      -46.01060000     -33.23820000     -70.37040000
C      -46.26660000     -31.03280000     -72.02830000
H      -46.60430000     -30.01540000     -72.30950000
H      -47.02520000     -31.49100000     -71.39850000
C      -46.13980000     -31.86000000     -73.30870000
C      -45.96020000     -31.38060000     -74.58730000
C      -46.27300000     -33.34520000     -73.26450000
H      -45.83420000     -30.36440000     -74.99250000
C      -46.07570000     -33.87610000     -74.55850000
C      -46.53970000     -34.33070000     -72.26960000
C      -46.56040000     -35.63720000     -72.79770000
S      -45.72130000     -32.71710000     -75.80600000
S      -46.23540000     -35.68760000     -74.47740000
H      -46.99850000     -36.39450000     -72.12860000
