40
Properties=species:S:1:pos:R:3 #=T CELL(abcABC):=T 1.889726e+02=T 90.00000=T Traj:=T positionsangstrom=T Step:=T 0=T Bead:=T pbc="F F F"
C      -43.28380000     -29.85740000     -70.86810000
C      -44.24040000     -30.41590000     -69.98000000
C      -45.55500000     -30.45290000     -70.32870000
C      -45.93680000     -30.05960000     -71.57720000
C      -44.99640000     -29.55430000     -72.49280000
C      -43.61890000     -29.42260000     -72.15560000
H      -42.24450000     -29.99470000     -70.58900000
H      -46.25770000     -30.83170000     -69.59310000
H      -45.43970000     -29.19850000     -73.46280000
H      -42.95490000     -29.11200000     -72.98110000
C      -47.39630000     -30.09850000     -72.09120000
H      -47.45340000     -29.82210000     -73.17720000
H      -47.88590000     -29.26920000     -71.65270000
C      -43.85250000     -30.63980000     -68.53380000
H      -42.70670000     -30.49450000     -68.38390000
H      -44.31180000     -29.95910000     -67.80250000
S      -48.28860000     -31.59340000     -71.53530000
S      -44.21460000     -32.32060000     -67.67920000
C      -47.46350000     -32.97560000     -72.45670000
H      -47.95330000     -33.02260000     -73.40930000
H      -46.45400000     -32.71150000     -72.48720000
C      -43.75040000     -33.44600000     -69.03050000
H      -43.44880000     -34.47230000     -68.70580000
H      -42.77190000     -33.10200000     -69.38240000
C      -44.69190000     -33.73100000     -70.26260000
H      -45.75580000     -33.73240000     -69.88850000
H      -44.62150000     -32.85790000     -70.89620000
C      -47.65210000     -34.33200000     -71.78590000
H      -48.67330000     -34.59250000     -71.88900000
H      -47.44970000     -34.24130000     -70.70390000
C      -46.76030000     -35.38410000     -72.35140000
C      -47.22440000     -36.30280000     -73.18670000
C      -45.35420000     -35.54580000     -72.04940000
H      -48.19080000     -36.42470000     -73.67760000
C      -44.78810000     -36.67480000     -72.65980000
C      -44.48370000     -35.04490000     -70.99120000
C      -43.30290000     -35.66870000     -71.03700000
S      -45.92280000     -37.44910000     -73.75620000
S      -43.19760000     -37.05880000     -72.18850000
H      -42.41840000     -35.51280000     -70.41760000
