40
Properties=species:S:1:pos:R:3 #=T CELL(abcABC):=T 1.889726e+02=T 90.00000=T Traj:=T positionsangstrom=T Step:=T 0=T Bead:=T pbc="F F F"
C      -43.44640000     -35.41050000     -69.38320000
C      -43.94040000     -34.62980000     -68.32610000
C      -43.86720000     -33.26180000     -68.22590000
C      -43.09520000     -32.59190000     -69.26030000
C      -42.62760000     -33.33670000     -70.37930000
C      -42.71360000     -34.74720000     -70.37230000
H      -43.40940000     -36.50680000     -69.17980000
H      -44.14090000     -32.63440000     -67.38650000
H      -42.12720000     -32.82820000     -71.19240000
H      -42.33680000     -35.23270000     -71.24390000
C      -42.96630000     -31.11970000     -69.33160000
H      -42.04180000     -30.89460000     -69.90640000
H      -42.86050000     -30.73490000     -68.32290000
C      -44.98140000     -35.28930000     -67.43210000
H      -44.85440000     -36.36150000     -67.31670000
H      -45.00780000     -34.88080000     -66.44690000
S      -44.54020000     -30.22310000     -69.90830000
S      -46.76240000     -35.06930000     -68.05030000
C      -44.79600000     -30.84460000     -71.52330000
H      -44.17930000     -30.22160000     -72.22950000
H      -44.31370000     -31.93840000     -71.54840000
C      -46.60430000     -35.28890000     -69.85550000
H      -47.29230000     -36.07390000     -70.07330000
H      -45.58700000     -35.45400000     -70.11160000
C      -46.99930000     -34.00480000     -70.67120000
H      -47.97050000     -33.56450000     -70.41690000
H      -46.34270000     -33.20520000     -70.31020000
C      -46.18860000     -30.83870000     -72.07690000
H      -46.43730000     -29.74540000     -72.22340000
H      -46.85680000     -31.18790000     -71.26300000
C      -46.28410000     -31.72940000     -73.28350000
C      -45.88410000     -31.36090000     -74.53850000
C      -46.43280000     -33.16900000     -73.20450000
H      -45.68490000     -30.40220000     -75.00400000
C      -46.26560000     -33.76930000     -74.46530000
C      -46.84500000     -34.17790000     -72.20580000
C      -46.76000000     -35.44320000     -72.73210000
S      -45.68240000     -32.74670000     -75.68110000
S      -46.27910000     -35.51890000     -74.38540000
H      -46.89760000     -36.29600000     -72.05150000
