40
Properties=species:S:1:pos:R:3 #=T CELL(abcABC):=T 1.889726e+02=T 90.00000=T Traj:=T positionsangstrom=T Step:=T 0=T Bead:=T pbc="F F F"
C      -42.89050000     -35.32450000     -69.35340000
C      -43.80440000     -34.65580000     -68.45700000
C      -43.79740000     -33.25700000     -68.41410000
C      -42.80370000     -32.52090000     -69.11300000
C      -41.83700000     -33.18740000     -69.86910000
C      -41.87480000     -34.58060000     -69.98380000
H      -42.95810000     -36.39900000     -69.49250000
H      -44.44380000     -32.70980000     -67.76960000
H      -41.14910000     -32.67790000     -70.51210000
H      -41.33030000     -35.15500000     -70.75320000
C      -42.78400000     -31.02930000     -69.02890000
H      -41.92160000     -30.56750000     -69.52960000
H      -42.75030000     -30.65250000     -67.99060000
C      -44.84980000     -35.39820000     -67.70430000
H      -44.71260000     -36.45710000     -67.84050000
H      -44.85310000     -35.23760000     -66.64490000
S      -44.24810000     -30.22270000     -69.90840000
S      -46.56710000     -34.98920000     -68.11810000
C      -44.51960000     -31.44010000     -71.26720000
H      -43.74350000     -31.31470000     -72.05060000
H      -44.26030000     -32.40300000     -70.86650000
C      -46.77150000     -35.20170000     -69.92360000
H      -47.84610000     -35.05940000     -70.05570000
H      -46.55580000     -36.27530000     -70.22710000
C      -46.02480000     -34.25070000     -70.78270000
H      -46.31650000     -33.21420000     -70.48110000
H      -44.98520000     -34.36040000     -70.47470000
C      -45.80630000     -31.08940000     -72.06140000
H      -45.74930000     -30.00500000     -72.27910000
H      -46.70300000     -31.20820000     -71.47000000
C      -46.17330000     -31.89490000     -73.26590000
C      -46.24940000     -31.31790000     -74.52300000
C      -46.56840000     -33.25730000     -73.20800000
H      -46.08280000     -30.32300000     -74.87410000
C      -47.02390000     -33.70560000     -74.48490000
C      -46.39280000     -34.37310000     -72.25320000
C      -46.64090000     -35.56940000     -72.87240000
S      -46.87790000     -32.49600000     -75.71270000
S      -47.19210000     -35.38320000     -74.56390000
H      -46.70600000     -36.59810000     -72.43820000
