40
Properties=species:S:1:pos:R:3 #=T CELL(abcABC):=T 1.889726e+02=T 90.00000=T Traj:=T positionsangstrom=T Step:=T 0=T Bead:=T pbc="F F F"
C      -42.73010000     -35.33710000     -69.23110000
C      -43.72160000     -34.68240000     -68.47180000
C      -43.62260000     -33.29310000     -68.33120000
C      -42.73940000     -32.59810000     -69.15010000
C      -41.78800000     -33.20100000     -69.96040000
C      -41.82830000     -34.59530000     -69.98690000
H      -42.74570000     -36.40390000     -69.35280000
H      -44.47290000     -32.77400000     -67.80120000
H      -41.01240000     -32.73200000     -70.55880000
H      -40.99850000     -35.10760000     -70.43170000
C      -42.84450000     -31.05110000     -69.05230000
H      -41.94620000     -30.59790000     -69.45070000
H      -42.94470000     -30.77910000     -68.00130000
C      -44.69700000     -35.53910000     -67.76030000
H      -44.58000000     -36.58070000     -68.09270000
H      -44.66900000     -35.42600000     -66.65010000
S      -44.33870000     -30.36020000     -69.85790000
S      -46.44390000     -34.98380000     -68.11030000
C      -44.32570000     -31.05800000     -71.65610000
H      -43.68750000     -30.48710000     -72.35590000
H      -44.15970000     -32.10510000     -71.66900000
C      -46.50890000     -35.38520000     -69.91460000
H      -47.52760000     -35.65560000     -70.07320000
H      -45.88880000     -36.25380000     -70.10310000
C      -46.10410000     -34.22490000     -70.75810000
H      -46.59570000     -33.37580000     -70.38070000
H      -45.01650000     -34.08150000     -70.77140000
C      -45.76410000     -30.98150000     -72.14040000
H      -46.03630000     -29.96140000     -72.34990000
H      -46.42490000     -31.21350000     -71.23300000
C      -46.24250000     -31.84650000     -73.24620000
C      -46.35410000     -31.31890000     -74.50830000
C      -46.48250000     -33.26440000     -73.21740000
H      -46.20250000     -30.26390000     -74.58990000
C      -46.82770000     -33.75680000     -74.51820000
C      -46.55350000     -34.31870000     -72.23370000
C      -47.04960000     -35.47320000     -72.74360000
S      -46.92190000     -32.48950000     -75.72550000
S      -47.44550000     -35.31750000     -74.47930000
H      -47.21680000     -36.44980000     -72.26690000
