40
Properties=species:S:1:pos:R:3 #=T CELL(abcABC):=T 1.889726e+02=T 90.00000=T Traj:=T positionsangstrom=T Step:=T 0=T Bead:=T pbc="F F F"
C      -42.60140000     -35.30110000     -69.60430000
C      -43.44630000     -34.58840000     -68.75280000
C      -43.36470000     -33.14940000     -68.76700000
C      -42.45910000     -32.52280000     -69.64550000
C      -41.56260000     -33.33130000     -70.45620000
C      -41.69670000     -34.72690000     -70.43050000
H      -42.70520000     -36.40990000     -69.51190000
H      -44.09680000     -32.60090000     -68.21630000
H      -40.96320000     -32.72690000     -71.16100000
H      -41.04800000     -35.44170000     -70.98950000
C      -42.48790000     -30.96190000     -69.58840000
H      -41.71750000     -30.52950000     -70.28390000
H      -42.29230000     -30.61640000     -68.53170000
C      -44.29410000     -35.30160000     -67.73410000
H      -44.05010000     -36.37060000     -67.78450000
H      -44.07200000     -34.93920000     -66.73510000
S      -44.09940000     -30.24880000     -70.00860000
S      -46.09020000     -35.06250000     -67.99410000
C      -44.63180000     -31.35510000     -71.35110000
H      -43.94270000     -31.21440000     -72.22770000
H      -44.70810000     -32.33880000     -71.05180000
C      -46.42810000     -35.25520000     -69.81220000
H      -47.09900000     -36.05710000     -70.06430000
H      -45.50500000     -35.45560000     -70.39900000
C      -47.04950000     -33.95080000     -70.46690000
H      -48.08150000     -33.84950000     -70.05780000
H      -46.39100000     -33.10750000     -70.12800000
C      -46.09320000     -30.97020000     -71.85900000
H      -46.16970000     -29.91040000     -72.24080000
H      -46.82760000     -30.96290000     -71.00490000
C      -46.38440000     -31.88820000     -73.04370000
C      -46.23080000     -31.44950000     -74.38460000
C      -46.81420000     -33.31860000     -72.98990000
H      -46.12630000     -30.44090000     -74.76020000
C      -46.98020000     -33.78820000     -74.29710000
C      -47.20590000     -34.21890000     -71.97290000
C      -47.83950000     -35.30120000     -72.48530000
S      -46.59040000     -32.67560000     -75.60000000
S      -47.79220000     -35.40570000     -74.25900000
H      -48.19460000     -36.09690000     -71.82270000
