40
Properties=species:S:1:pos:R:3 #=T CELL(abcABC):=T 1.889726e+02=T 90.00000=T Traj:=T positionsangstrom=T Step:=T 0=T Bead:=T pbc="F F F"
C      -44.45850000     -29.54340000     -70.72280000
C      -44.93840000     -30.38730000     -69.70570000
C      -46.18760000     -30.92230000     -69.92190000
C      -46.91710000     -30.63660000     -71.12430000
C      -46.38280000     -29.82600000     -72.15330000
C      -45.14030000     -29.29050000     -71.87300000
H      -43.53770000     -29.03790000     -70.58040000
H      -46.77440000     -31.56750000     -69.24790000
H      -46.83460000     -29.71720000     -73.06520000
H      -44.68460000     -28.59580000     -72.61940000
C      -48.33270000     -31.12660000     -71.23680000
H      -48.80360000     -30.80560000     -72.23890000
H      -48.94010000     -30.47980000     -70.54790000
C      -44.11510000     -30.66390000     -68.49510000
H      -43.00690000     -30.71460000     -68.71600000
H      -44.18550000     -29.87640000     -67.71560000
S      -48.76230000     -32.86040000     -71.00630000
S      -44.49420000     -32.27360000     -67.75530000
C      -47.58330000     -33.72810000     -72.20660000
H      -47.97260000     -33.69470000     -73.22740000
H      -46.68620000     -33.20500000     -72.26790000
C      -43.65100000     -33.62870000     -68.70710000
H      -43.45180000     -34.51860000     -68.07380000
H      -42.59940000     -33.33530000     -68.94700000
C      -44.57330000     -34.05710000     -69.88900000
H      -45.48940000     -34.54360000     -69.48020000
H      -44.85100000     -33.12110000     -70.47270000
C      -47.34870000     -35.16390000     -71.74840000
H      -48.23110000     -35.76150000     -71.90410000
H      -47.15930000     -35.20530000     -70.66520000
C      -46.17130000     -35.65650000     -72.51070000
C      -46.28330000     -36.19660000     -73.77870000
C      -44.76000000     -35.44110000     -72.13490000
H      -47.14570000     -36.52460000     -74.28620000
C      -43.90460000     -36.04650000     -73.11000000
C      -44.02900000     -34.84070000     -71.03970000
C      -42.66610000     -34.82180000     -71.29700000
S      -44.77240000     -36.63930000     -74.55600000
S      -42.27200000     -35.57330000     -72.80000000
H      -41.87890000     -34.60350000     -70.57530000
