40
Properties=species:S:1:pos:R:3 #=T CELL(abcABC):=T 1.889726e+02=T 90.00000=T Traj:=T positionsangstrom=T Step:=T 0=T Bead:=T pbc="F F F"
C      -44.45370000     -29.49090000     -70.84570000
C      -44.93630000     -30.38090000     -69.84570000
C      -46.21760000     -30.90390000     -70.02720000
C      -46.99940000     -30.60270000     -71.18620000
C      -46.52530000     -29.66140000     -72.12180000
C      -45.22970000     -29.13300000     -71.91100000
H      -43.50590000     -29.01270000     -70.93380000
H      -46.64030000     -31.55360000     -69.27290000
H      -47.27020000     -29.25460000     -72.77300000
H      -44.91040000     -28.38430000     -72.59850000
C      -48.39700000     -31.09630000     -71.39170000
H      -48.76340000     -31.19090000     -72.37670000
H      -49.09120000     -30.52290000     -70.77490000
C      -44.09980000     -30.61860000     -68.57210000
H      -43.06090000     -30.45240000     -68.75440000
H      -44.50360000     -29.89060000     -67.85500000
S      -48.56080000     -32.92680000     -70.71180000
S      -44.53530000     -32.26830000     -67.77950000
C      -47.47620000     -33.70480000     -71.92280000
H      -47.80610000     -33.51400000     -72.98120000
H      -46.49110000     -33.16040000     -71.82590000
C      -43.85190000     -33.40260000     -69.06210000
H      -43.19880000     -34.06700000     -68.51440000
H      -43.23670000     -32.79920000     -69.77550000
C      -44.80970000     -34.20110000     -69.91770000
H      -45.12950000     -35.03080000     -69.26880000
H      -45.66850000     -33.56360000     -70.06970000
C      -47.35460000     -35.23230000     -71.72780000
H      -48.24210000     -35.72040000     -72.19570000
H      -47.24160000     -35.50550000     -70.62820000
C      -46.11190000     -35.74340000     -72.53930000
C      -46.25910000     -36.48420000     -73.69360000
C      -44.74290000     -35.48290000     -72.17930000
H      -47.12500000     -36.85020000     -74.26520000
C      -43.85430000     -35.98340000     -73.11520000
C      -44.09840000     -34.77140000     -71.12220000
C      -42.72250000     -34.73530000     -71.30130000
S      -44.64540000     -36.65670000     -74.54650000
S      -42.24720000     -35.63750000     -72.74220000
H      -41.96880000     -34.44950000     -70.64580000
