40
Properties=species:S:1:pos:R:3 #=T CELL(abcABC):=T 1.889726e+02=T 90.00000=T Traj:=T positionsangstrom=T Step:=T 0=T Bead:=T pbc="F F F"
C      -42.16870000     -35.29100000     -69.28790000
C      -43.06580000     -34.51780000     -68.54550000
C      -43.00760000     -33.10580000     -68.72530000
C      -42.15480000     -32.54700000     -69.67510000
C      -41.26080000     -33.38870000     -70.36600000
C      -41.21490000     -34.76470000     -70.12430000
H      -42.10330000     -36.38710000     -69.19430000
H      -43.68870000     -32.46830000     -68.17850000
H      -40.49680000     -32.97950000     -71.00790000
H      -40.53500000     -35.55610000     -70.58000000
C      -42.25740000     -31.00710000     -69.91290000
H      -41.59140000     -30.65160000     -70.72010000
H      -41.88950000     -30.47300000     -68.95650000
C      -44.18180000     -35.27130000     -67.76550000
H      -44.18570000     -36.35920000     -67.81220000
H      -44.09070000     -34.90540000     -66.75150000
S      -43.93950000     -30.37830000     -70.33010000
S      -45.83540000     -34.64050000     -68.17510000
C      -44.32250000     -31.41340000     -71.77130000
H      -43.85080000     -30.95150000     -72.60340000
H      -44.08040000     -32.45270000     -71.64110000
C      -46.11400000     -34.83420000     -69.95950000
H      -46.27380000     -35.84540000     -70.16990000
H      -45.16580000     -34.55960000     -70.51840000
C      -47.40260000     -34.10640000     -70.32770000
H      -48.25740000     -34.61220000     -69.84720000
H      -47.27510000     -32.99630000     -69.97600000
C      -45.85170000     -31.25980000     -71.91400000
H      -46.13920000     -30.22530000     -72.00540000
H      -46.26680000     -31.63070000     -70.94560000
C      -46.37720000     -32.09480000     -73.03860000
C      -46.29760000     -31.63070000     -74.34790000
C      -47.07090000     -33.36780000     -72.96280000
H      -45.89720000     -30.63810000     -74.51470000
C      -47.48730000     -33.85800000     -74.20350000
C      -47.65180000     -34.13840000     -71.85940000
C      -48.33600000     -35.27150000     -72.26890000
S      -46.95180000     -32.81450000     -75.49970000
S      -48.46150000     -35.35320000     -74.07290000
H      -48.65330000     -36.09950000     -71.64680000
