40
Properties=species:S:1:pos:R:3 #=T CELL(abcABC):=T 1.889726e+02=T 90.00000=T Traj:=T positionsangstrom=T Step:=T 0=T Bead:=T pbc="F F F"
C      -44.86360000     -29.75430000     -70.45520000
C      -45.47110000     -30.43300000     -69.39880000
C      -46.75750000     -30.99070000     -69.55480000
C      -47.38020000     -30.78780000     -70.81680000
C      -46.78870000     -29.98610000     -71.81360000
C      -45.50450000     -29.46760000     -71.64270000
H      -43.93930000     -29.22420000     -70.24410000
H      -47.31780000     -31.52040000     -68.81020000
H      -47.46510000     -29.64940000     -72.61200000
H      -45.08190000     -28.85650000     -72.43900000
C      -48.84290000     -31.24910000     -71.11360000
H      -49.14000000     -30.87280000     -72.12830000
H      -49.63700000     -30.91070000     -70.41320000
C      -44.76140000     -30.55520000     -68.04690000
H      -43.88790000     -29.90670000     -67.99480000
H      -45.39010000     -30.39980000     -67.18290000
S      -48.98930000     -33.08110000     -70.99150000
S      -44.08120000     -32.31150000     -67.84430000
C      -47.53230000     -33.61420000     -72.11830000
H      -47.85940000     -33.34650000     -73.13770000
H      -46.63380000     -33.01840000     -71.84500000
C      -43.41990000     -32.83060000     -69.49080000
H      -42.58300000     -33.38090000     -69.09460000
H      -43.14730000     -31.91500000     -69.97440000
C      -44.46030000     -33.61060000     -70.25960000
H      -44.98980000     -34.40310000     -69.64510000
H      -45.10460000     -32.80940000     -70.68870000
C      -47.11860000     -35.07480000     -71.93360000
H      -47.90800000     -35.75070000     -72.17030000
H      -46.92270000     -35.23930000     -70.87670000
C      -45.92230000     -35.56450000     -72.71200000
C      -46.01540000     -36.42890000     -73.73960000
C      -44.55490000     -35.20140000     -72.40630000
H      -46.90460000     -36.76300000     -74.15300000
C      -43.67320000     -35.86480000     -73.22990000
C      -43.81760000     -34.41760000     -71.44010000
C      -42.49590000     -34.58130000     -71.55960000
S      -44.40790000     -36.92330000     -74.40800000
S      -41.98820000     -35.71630000     -72.85770000
H      -41.77510000     -34.18430000     -70.81200000
