40
Properties=species:S:1:pos:R:3 #=T CELL(abcABC):=T 1.889726e+02=T 90.00000=T Traj:=T positionsangstrom=T Step:=T 0=T Bead:=T pbc="F F F"
C      -45.10540000     -29.87430000     -70.33350000
C      -45.79030000     -30.65650000     -69.42850000
C      -46.98020000     -31.23810000     -69.85650000
C      -47.53040000     -30.97450000     -71.07880000
C      -46.83700000     -30.14450000     -71.96710000
C      -45.60830000     -29.64600000     -71.63790000
H      -44.21640000     -29.34490000     -70.00880000
H      -47.58320000     -31.84550000     -69.21220000
H      -47.27770000     -29.99630000     -72.98830000
H      -45.10890000     -28.90880000     -72.28440000
C      -48.84330000     -31.50210000     -71.52750000
H      -48.94980000     -31.28120000     -72.61480000
H      -49.70500000     -31.12310000     -71.00330000
C      -45.34820000     -30.83180000     -67.94370000
H      -44.94870000     -29.89260000     -67.62910000
H      -46.23190000     -31.10270000     -67.37990000
S      -49.05640000     -33.32540000     -71.36550000
S      -44.06360000     -32.18190000     -67.81470000
C      -47.52190000     -34.00920000     -72.31930000
H      -47.78210000     -34.59550000     -73.15420000
H      -46.83780000     -33.20280000     -72.63620000
C      -43.36350000     -32.41460000     -69.51080000
H      -42.33320000     -32.78870000     -69.41570000
H      -43.09760000     -31.41670000     -69.93160000
C      -44.25800000     -33.16690000     -70.46610000
H      -44.98760000     -33.61960000     -69.76710000
H      -44.91320000     -32.52700000     -70.97600000
C      -46.82350000     -35.03090000     -71.37940000
H      -47.52000000     -35.84670000     -71.01940000
H      -46.46380000     -34.50590000     -70.52120000
C      -45.71280000     -35.66490000     -72.08530000
C      -45.86230000     -36.73810000     -72.98620000
C      -44.36360000     -35.11880000     -72.14780000
H      -46.85570000     -37.15470000     -73.21690000
C      -43.56350000     -35.76790000     -73.15220000
C      -43.59580000     -34.09220000     -71.45380000
C      -42.29830000     -34.01830000     -71.93300000
S      -44.43540000     -37.05580000     -73.91840000
S      -41.88070000     -35.27970000     -73.16110000
H      -41.53380000     -33.32840000     -71.68500000
