40
Properties=species:S:1:pos:R:3 #=T CELL(abcABC):=T 1.889726e+02=T 90.00000=T Traj:=T positionsangstrom=T Step:=T 0=T Bead:=T pbc="F F F"
C      -45.22450000     -29.74480000     -70.28210000
C      -45.93850000     -30.54240000     -69.44320000
C      -47.15210000     -31.18060000     -69.91560000
C      -47.54250000     -30.93990000     -71.24290000
C      -46.75290000     -30.16940000     -72.03400000
C      -45.65130000     -29.48710000     -71.56420000
H      -44.38960000     -29.18250000     -69.97460000
H      -47.64260000     -31.90420000     -69.30050000
H      -47.05210000     -30.02420000     -73.05200000
H      -44.91570000     -28.99030000     -72.17430000
C      -48.79180000     -31.67640000     -71.77950000
H      -48.89380000     -31.55970000     -72.84360000
H      -49.67550000     -31.16640000     -71.32120000
C      -45.50910000     -30.75600000     -68.06160000
H      -45.31170000     -29.80760000     -67.56080000
H      -46.32020000     -31.23840000     -67.52980000
S      -48.92120000     -33.40420000     -71.29620000
S      -43.99520000     -31.86150000     -67.86780000
C      -47.56300000     -34.25220000     -72.28620000
H      -48.11220000     -34.76970000     -73.08810000
H      -46.84020000     -33.56730000     -72.62630000
C      -43.49900000     -32.32950000     -69.54570000
H      -42.46540000     -32.68150000     -69.49230000
H      -43.38500000     -31.50390000     -70.26440000
C      -44.43530000     -33.38590000     -70.24540000
H      -44.61940000     -34.11540000     -69.47070000
H      -45.34930000     -32.78570000     -70.54760000
C      -46.94160000     -35.40460000     -71.50590000
H      -47.54300000     -36.24690000     -71.56920000
H      -46.75110000     -35.11160000     -70.45750000
C      -45.69250000     -35.85040000     -72.15120000
C      -45.64180000     -36.99320000     -72.98890000
C      -44.33630000     -35.24730000     -72.11430000
H      -46.42010000     -37.71460000     -73.09890000
C      -43.46210000     -35.89120000     -72.94320000
C      -43.77110000     -34.07330000     -71.48030000
C      -42.47330000     -33.87170000     -71.89520000
S      -44.13830000     -37.24500000     -73.78800000
S      -41.98040000     -34.90150000     -73.19070000
H      -41.82940000     -33.01420000     -71.55180000
