40
Properties=species:S:1:pos:R:3 #=T CELL(abcABC):=T 1.889726e+02=T 90.00000=T Traj:=T positionsangstrom=T Step:=T 0=T Bead:=T pbc="F F F"
C      -45.36030000     -29.44990000     -70.63770000
C      -45.96190000     -30.29400000     -69.65870000
C      -47.15530000     -30.99510000     -69.97590000
C      -47.66250000     -30.96630000     -71.25210000
C      -47.03060000     -30.19610000     -72.24260000
C      -45.88780000     -29.47020000     -71.98800000
H      -44.39060000     -28.98360000     -70.41190000
H      -47.60560000     -31.48850000     -69.14010000
H      -47.44070000     -30.10530000     -73.27550000
H      -45.17470000     -28.95030000     -72.67520000
C      -48.93160000     -31.76900000     -71.61070000
H      -49.12650000     -31.75770000     -72.71830000
H      -49.81160000     -31.36550000     -71.14390000
C      -45.23030000     -30.34670000     -68.32680000
H      -44.35380000     -29.72420000     -68.26110000
H      -45.91140000     -30.05200000     -67.61970000
S      -48.76270000     -33.60900000     -71.07100000
S      -44.73980000     -32.08820000     -67.91800000
C      -47.32250000     -34.23340000     -72.01550000
H      -47.55450000     -34.37750000     -73.07210000
H      -46.61320000     -33.46570000     -72.04170000
C      -43.67490000     -32.60550000     -69.36140000
H      -42.85920000     -33.20210000     -68.91900000
H      -43.28580000     -31.64580000     -69.81390000
C      -44.32530000     -33.60390000     -70.22710000
H      -44.51290000     -34.46760000     -69.62600000
H      -45.32840000     -33.29140000     -70.58540000
C      -46.77300000     -35.47100000     -71.35040000
H      -47.51170000     -36.25160000     -71.46500000
H      -46.62160000     -35.39490000     -70.23760000
C      -45.47670000     -35.92440000     -71.99710000
C      -45.41890000     -37.01650000     -72.88280000
C      -44.27690000     -35.15040000     -72.11260000
H      -46.14240000     -37.80080000     -73.11080000
C      -43.38590000     -35.67980000     -73.04510000
C      -43.62720000     -34.12390000     -71.38950000
C      -42.43080000     -33.74780000     -71.86830000
S      -43.85560000     -37.16460000     -73.83670000
S      -41.89010000     -34.83450000     -73.15370000
H      -41.81820000     -32.98480000     -71.48990000
