40
Properties=species:S:1:pos:R:3 #=T CELL(abcABC):=T 1.889726e+02=T 90.00000=T Traj:=T positionsangstrom=T Step:=T 0=T Bead:=T pbc="F F F"
C      -46.55510000     -37.63170000     -71.90250000
C      -46.27240000     -36.87280000     -70.82310000
C      -47.12570000     -35.76670000     -70.42480000
C      -48.21090000     -35.47690000     -71.19100000
C      -48.60290000     -36.35600000     -72.19240000
C      -47.76520000     -37.43820000     -72.53560000
H      -45.94270000     -38.53150000     -72.11280000
H      -47.01240000     -35.20990000     -69.50380000
H      -49.51530000     -36.21300000     -72.78220000
H      -48.02660000     -38.13940000     -73.30910000
C      -49.02880000     -34.26430000     -70.76760000
H      -48.53100000     -33.91960000     -69.79710000
H      -50.15930000     -34.53440000     -70.62000000
C      -45.07700000     -37.10370000     -70.03130000
H      -45.09980000     -36.72120000     -69.05460000
H      -44.85670000     -38.13470000     -69.81660000
S      -48.98770000     -32.77860000     -71.91720000
S      -43.48210000     -36.60440000     -70.85500000
C      -47.17780000     -32.53270000     -72.11480000
H      -46.61380000     -33.53270000     -72.18210000
H      -46.86060000     -31.97870000     -73.01770000
C      -43.54870000     -34.80790000     -71.28500000
H      -44.24410000     -34.55430000     -72.04860000
H      -42.63520000     -34.54340000     -71.78850000
C      -43.75960000     -33.89010000     -70.09300000
H      -44.86100000     -33.83090000     -69.92800000
H      -43.39490000     -34.25110000     -69.06050000
C      -46.68840000     -31.75600000     -70.94670000
H      -46.64460000     -32.36440000     -70.11970000
H      -47.42080000     -30.96670000     -70.69320000
C      -45.42310000     -30.98510000     -71.22600000
C      -45.54370000     -29.77460000     -71.87010000
C      -44.03990000     -31.39250000     -71.01850000
H      -46.43190000     -29.17870000     -72.10740000
C      -43.15290000     -30.37820000     -71.54140000
C      -43.28700000     -32.47860000     -70.51070000
C      -41.92330000     -32.23310000     -70.45040000
S      -43.93860000     -28.99620000     -72.19220000
S      -41.51620000     -30.71450000     -71.31760000
H      -41.18590000     -32.92600000     -70.16390000
