40
Properties=species:S:1:pos:R:3 #=T CELL(abcABC):=T 1.889726e+02=T 90.00000=T Traj:=T positionsangstrom=T Step:=T 0=T Bead:=T pbc="F F F"
C      -46.79840000     -37.59160000     -71.98540000
C      -46.30160000     -36.77110000     -70.93150000
C      -47.12990000     -35.76470000     -70.41110000
C      -48.30510000     -35.48750000     -71.05640000
C      -48.71630000     -36.20340000     -72.14560000
C      -47.98050000     -37.28750000     -72.64770000
H      -46.13340000     -38.29330000     -72.35710000
H      -46.76070000     -35.17380000     -69.54590000
H      -49.72420000     -36.01120000     -72.53110000
H      -48.33010000     -37.91860000     -73.48810000
C      -49.19630000     -34.28840000     -70.67770000
H      -49.11420000     -33.88470000     -69.61210000
H      -50.24560000     -34.62500000     -70.71330000
C      -45.00530000     -37.10680000     -70.21580000
H      -45.18420000     -36.73400000     -69.20870000
H      -44.82390000     -38.19170000     -70.25120000
S      -48.82690000     -33.11670000     -72.03930000
S      -43.38520000     -36.49310000     -70.84750000
C      -47.01140000     -32.83840000     -71.90760000
H      -46.46320000     -33.74440000     -71.98820000
H      -46.83280000     -32.22850000     -72.78550000
C      -43.73220000     -34.68400000     -71.11690000
H      -44.70510000     -34.55780000     -71.57000000
H      -42.95620000     -34.47780000     -71.77650000
C      -43.71370000     -33.68110000     -69.92040000
H      -44.71910000     -33.62950000     -69.45080000
H      -42.99740000     -34.07100000     -69.23210000
C      -46.49110000     -31.91790000     -70.70800000
H      -46.09820000     -32.55150000     -69.87380000
H      -47.20480000     -31.28600000     -70.25950000
C      -45.39870000     -31.01760000     -71.17950000
C      -45.55630000     -29.92490000     -71.98880000
C      -43.95790000     -31.26160000     -70.92920000
H      -46.45850000     -29.47010000     -72.26650000
C      -43.16550000     -30.34440000     -71.54510000
C      -43.19120000     -32.34700000     -70.35250000
C      -41.86850000     -32.08870000     -70.41120000
S      -44.09350000     -29.11350000     -72.53180000
S      -41.48040000     -30.57050000     -71.20150000
H      -41.07730000     -32.65480000     -69.90350000
