40
Properties=species:S:1:pos:R:3 #=T CELL(abcABC):=T 1.889726e+02=T 90.00000=T Traj:=T positionsangstrom=T Step:=T 0=T Bead:=T pbc="F F F"
C      -46.76220000     -37.54550000     -72.13760000
C      -46.37040000     -36.86610000     -70.94090000
C      -47.14100000     -35.87310000     -70.42650000
C      -48.39010000     -35.58190000     -70.98500000
C      -48.90150000     -36.43750000     -71.98300000
C      -48.08140000     -37.33540000     -72.62500000
H      -46.10790000     -38.18860000     -72.67990000
H      -46.76110000     -35.27230000     -69.63080000
H      -49.81570000     -36.12660000     -72.48350000
H      -48.37880000     -37.88250000     -73.52420000
C      -48.99830000     -34.26650000     -70.71020000
H      -48.66130000     -33.85240000     -69.76080000
H      -50.08720000     -34.37640000     -70.62560000
C      -45.08430000     -37.18800000     -70.27070000
H      -45.27470000     -37.04930000     -69.19180000
H      -44.81510000     -38.24410000     -70.43760000
S      -48.83670000     -33.06400000     -72.05910000
S      -43.53540000     -36.25900000     -70.80040000
C      -47.00030000     -33.00570000     -72.08040000
H      -46.47040000     -34.05800000     -72.04950000
H      -46.74920000     -32.67480000     -73.08830000
C      -43.95560000     -34.45950000     -70.89190000
H      -45.06620000     -34.42080000     -70.95330000
H      -43.61810000     -34.06710000     -71.87190000
C      -43.43350000     -33.65650000     -69.73370000
H      -44.15950000     -33.55140000     -68.91430000
H      -42.53230000     -34.07170000     -69.18930000
C      -46.49300000     -32.05440000     -70.85890000
H      -46.26010000     -32.73620000     -70.03760000
H      -47.31590000     -31.43170000     -70.55720000
C      -45.28700000     -31.22100000     -71.31260000
C      -45.60480000     -30.15170000     -72.13520000
C      -43.86980000     -31.34080000     -70.98590000
H      -46.50910000     -30.00640000     -72.73170000
C      -43.14410000     -30.28170000     -71.53530000
C      -42.99100000     -32.29080000     -70.26600000
C      -41.68000000     -31.90670000     -70.31250000
S      -44.09800000     -29.22780000     -72.50860000
S      -41.45530000     -30.39550000     -71.20070000
H      -40.76170000     -32.35040000     -69.98950000
