40
Properties=species:S:1:pos:R:3 #=T CELL(abcABC):=T 1.889726e+02=T 90.00000=T Traj:=T positionsangstrom=T Step:=T 0=T Bead:=T pbc="F F F"
C      -46.86360000     -37.78490000     -71.83950000
C      -46.40290000     -36.97690000     -70.77770000
C      -47.15910000     -35.83090000     -70.45930000
C      -48.32590000     -35.59010000     -71.16760000
C      -48.75710000     -36.42010000     -72.23440000
C      -47.99520000     -37.50460000     -72.58200000
H      -46.27510000     -38.69860000     -72.07750000
H      -46.92850000     -35.20660000     -69.64850000
H      -49.61020000     -36.25110000     -72.86530000
H      -48.25820000     -38.13970000     -73.36150000
C      -49.16930000     -34.40020000     -70.73350000
H      -48.80530000     -34.06510000     -69.75870000
H      -50.22020000     -34.62710000     -70.65890000
C      -45.05680000     -37.25720000     -70.19730000
H      -45.00660000     -37.03500000     -69.12390000
H      -44.79140000     -38.31990000     -70.20980000
S      -48.98020000     -32.98360000     -71.93810000
S      -43.48200000     -36.36330000     -70.76720000
C      -47.19550000     -32.74970000     -72.27030000
H      -46.77670000     -33.67950000     -72.59740000
H      -47.16150000     -32.02350000     -73.03700000
C      -44.07860000     -34.59270000     -70.68250000
H      -45.15130000     -34.60940000     -70.45130000
H      -44.09170000     -34.08180000     -71.68330000
C      -43.35560000     -33.57250000     -69.77630000
H      -43.98370000     -33.36530000     -68.93040000
H      -42.46990000     -34.04730000     -69.38290000
C      -46.37730000     -32.16670000     -71.08620000
H      -45.98510000     -33.01350000     -70.57000000
H      -46.97240000     -31.56650000     -70.31970000
C      -45.18630000     -31.28810000     -71.52870000
C      -45.46250000     -30.19560000     -72.31130000
C      -43.83000000     -31.41140000     -71.09780000
H      -46.40640000     -29.89380000     -72.82030000
C      -43.12920000     -30.18300000     -71.54530000
C      -42.94170000     -32.28700000     -70.36270000
C      -41.70150000     -31.76110000     -70.22630000
S      -44.09640000     -29.16420000     -72.54360000
S      -41.42930000     -30.22870000     -71.07390000
H      -40.85010000     -32.22750000     -69.85800000
