40
Properties=species:S:1:pos:R:3 #=T CELL(abcABC):=T 1.889726e+02=T 90.00000=T Traj:=T positionsangstrom=T Step:=T 0=T Bead:=T pbc="F F F"
C      -46.62950000     -37.86560000     -71.76100000
C      -46.23940000     -37.00450000     -70.70530000
C      -47.05840000     -35.85390000     -70.46680000
C      -48.17740000     -35.61820000     -71.28240000
C      -48.54340000     -36.52900000     -72.24930000
C      -47.73380000     -37.65870000     -72.48260000
H      -46.02200000     -38.74520000     -72.02410000
H      -46.76010000     -35.27110000     -69.58090000
H      -49.55130000     -36.56750000     -72.69250000
H      -48.06340000     -38.23030000     -73.31010000
C      -49.07550000     -34.42750000     -70.88700000
H      -48.74110000     -34.11990000     -69.82180000
H      -50.12060000     -34.75630000     -70.80280000
C      -45.06570000     -37.20960000     -69.80000000
H      -45.22870000     -36.77110000     -68.78430000
H      -44.74400000     -38.27430000     -69.87060000
S      -49.18550000     -32.84650000     -71.88680000
S      -43.60240000     -36.42030000     -70.73600000
C      -47.40180000     -32.54910000     -72.34960000
H      -47.00880000     -33.47150000     -72.80910000
H      -47.44480000     -31.78470000     -73.21150000
C      -43.86730000     -34.63360000     -71.07960000
H      -44.94040000     -34.50280000     -71.11890000
H      -43.42450000     -34.60170000     -72.04580000
C      -43.23770000     -33.75090000     -69.96800000
H      -43.87850000     -33.75430000     -69.00610000
H      -42.22580000     -34.13200000     -69.74440000
C      -46.52590000     -32.09490000     -71.22320000
H      -46.30270000     -32.92110000     -70.57540000
H      -47.19430000     -31.48050000     -70.58960000
C      -45.27640000     -31.27700000     -71.64550000
C      -45.45920000     -30.17330000     -72.39790000
C      -43.87860000     -31.37660000     -71.13510000
H      -46.42870000     -29.78700000     -72.70270000
C      -43.13800000     -30.25910000     -71.56690000
C      -42.97640000     -32.35610000     -70.42410000
C      -41.81340000     -31.76170000     -70.14330000
S      -44.02060000     -29.14480000     -72.54690000
S      -41.53490000     -30.15390000     -70.86510000
H      -40.96620000     -32.14890000     -69.61180000
