40
Properties=species:S:1:pos:R:3 #=T CELL(abcABC):=T 1.889726e+02=T 90.00000=T Traj:=T positionsangstrom=T Step:=T 0=T Bead:=T pbc="F F F"
C      -46.48690000     -37.71010000     -71.70800000
C      -46.17080000     -36.87660000     -70.66120000
C      -47.05280000     -35.82270000     -70.39420000
C      -48.16530000     -35.52850000     -71.22010000
C      -48.37300000     -36.36650000     -72.33510000
C      -47.57480000     -37.45020000     -72.53130000
H      -45.97130000     -38.63400000     -71.96840000
H      -46.97970000     -35.16260000     -69.46250000
H      -48.99470000     -36.07850000     -73.19510000
H      -47.86140000     -38.17240000     -73.33880000
C      -49.16180000     -34.55380000     -70.84060000
H      -49.21060000     -34.41340000     -69.82740000
H      -50.10720000     -34.92930000     -71.12920000
C      -44.91690000     -36.95540000     -69.81180000
H      -45.07620000     -36.41250000     -68.90830000
H      -44.81970000     -37.95540000     -69.48320000
S      -49.13000000     -33.02480000     -71.83700000
S      -43.42020000     -36.55720000     -70.78380000
C      -47.41010000     -32.51500000     -72.29990000
H      -47.07690000     -33.30760000     -72.96970000
H      -47.46230000     -31.71860000     -73.04460000
C      -43.77140000     -34.79520000     -71.23910000
H      -44.79520000     -34.78720000     -71.75130000
H      -43.04470000     -34.45920000     -71.96640000
C      -43.69780000     -33.71880000     -70.04040000
H      -44.66390000     -33.73020000     -69.59170000
H      -43.09710000     -34.03200000     -69.24800000
C      -46.44510000     -32.19620000     -71.23570000
H      -46.03850000     -33.20550000     -70.89350000
H      -46.94340000     -31.76610000     -70.41050000
C      -45.30930000     -31.22410000     -71.69050000
C      -45.50790000     -30.11470000     -72.46950000
C      -43.95230000     -31.33640000     -71.19810000
H      -46.46800000     -29.85330000     -72.92710000
C      -43.20280000     -30.19610000     -71.44380000
C      -43.19250000     -32.31690000     -70.50240000
C      -41.93090000     -31.92950000     -70.20960000
S      -44.07960000     -29.07020000     -72.49810000
S      -41.60680000     -30.22120000     -70.77410000
H      -41.14780000     -32.35210000     -69.56040000
