40
Properties=species:S:1:pos:R:3 #=T CELL(abcABC):=T 1.889726e+02=T 90.00000=T Traj:=T positionsangstrom=T Step:=T 0=T Bead:=T pbc="F F F"
C      -45.73260000     -37.59270000     -71.74380000
C      -45.66920000     -36.81480000     -70.56970000
C      -46.67760000     -35.89060000     -70.28380000
C      -47.78720000     -35.67000000     -71.13860000
C      -47.82640000     -36.48780000     -72.31640000
C      -46.84400000     -37.42510000     -72.61080000
H      -44.90950000     -38.17850000     -72.14940000
H      -46.54190000     -35.18860000     -69.42460000
H      -48.68230000     -36.34110000     -72.94790000
H      -46.83720000     -37.96920000     -73.60500000
C      -48.92000000     -34.74840000     -70.70540000
H      -48.74370000     -34.38760000     -69.74980000
H      -49.83980000     -35.29760000     -70.72000000
C      -44.60490000     -36.84220000     -69.53120000
H      -44.80830000     -36.09280000     -68.75950000
H      -44.45600000     -37.85510000     -69.13360000
S      -49.31390000     -33.42580000     -71.87680000
S      -42.93330000     -36.52030000     -70.35490000
C      -47.56790000     -32.78530000     -72.26940000
H      -46.94370000     -33.56040000     -72.90620000
H      -47.72300000     -32.02430000     -72.97230000
C      -43.04740000     -34.80540000     -71.13880000
H      -43.68230000     -34.82780000     -72.06150000
H      -42.06470000     -34.49390000     -71.47290000
C      -43.61700000     -33.67650000     -70.30040000
H      -44.74250000     -33.73500000     -70.10820000
H      -43.16710000     -33.73680000     -69.25530000
C      -46.79700000     -32.29010000     -71.04690000
H      -46.22390000     -33.11920000     -70.56050000
H      -47.44150000     -31.95220000     -70.21570000
C      -45.81400000     -31.16000000     -71.34660000
C      -46.19170000     -29.88370000     -71.73980000
C      -44.36210000     -31.21120000     -71.26260000
H      -47.17170000     -29.53510000     -72.02770000
C      -43.71360000     -30.06530000     -71.65330000
C      -43.35530000     -32.25790000     -70.86280000
C      -42.05390000     -31.86500000     -71.11090000
S      -44.77270000     -28.76940000     -72.02920000
S      -42.01440000     -30.21660000     -71.72830000
H      -41.14450000     -32.40930000     -70.92930000
