40
Properties=species:S:1:pos:R:3 #=T CELL(abcABC):=T 1.889726e+02=T 90.00000=T Traj:=T positionsangstrom=T Step:=T 0=T Bead:=T pbc="F F F"
C      -45.48780000     -37.44180000     -71.71530000
C      -45.60300000     -36.77600000     -70.50510000
C      -46.71110000     -36.01020000     -70.17870000
C      -47.77640000     -35.93970000     -71.12030000
C      -47.63980000     -36.57320000     -72.34620000
C      -46.56550000     -37.38470000     -72.61210000
H      -44.63690000     -38.16080000     -71.88500000
H      -46.83890000     -35.56330000     -69.18690000
H      -48.43990000     -36.53330000     -73.05120000
H      -46.50550000     -38.02220000     -73.52270000
C      -49.05180000     -35.15940000     -70.88040000
H      -49.25270000     -34.88710000     -69.80680000
H      -49.89480000     -35.81720000     -71.26800000
C      -44.46770000     -36.90750000     -69.50120000
H      -44.66480000     -36.35760000     -68.59440000
H      -44.17980000     -37.95220000     -69.12940000
S      -49.24450000     -33.51270000     -71.82390000
S      -42.83820000     -36.29250000     -70.12770000
C      -47.61800000     -32.78130000     -72.12420000
H      -46.81630000     -33.57600000     -72.62080000
H      -47.82190000     -32.03010000     -72.80940000
C      -43.40090000     -34.82450000     -71.22920000
H      -44.38930000     -35.10560000     -71.66220000
H      -42.70190000     -34.78460000     -72.08050000
C      -43.42540000     -33.55270000     -70.39720000
H      -44.36910000     -33.59330000     -69.88650000
H      -42.61350000     -33.60770000     -69.76000000
C      -46.87920000     -32.16080000     -70.85720000
H      -46.50620000     -32.93070000     -70.23710000
H      -47.66560000     -31.65740000     -70.27640000
C      -45.80630000     -31.16660000     -71.22140000
C      -46.25060000     -29.91470000     -71.54550000
C      -44.36650000     -31.22930000     -71.30970000
H      -47.30030000     -29.61040000     -71.42210000
C      -43.81660000     -30.09820000     -71.90580000
C      -43.33930000     -32.22880000     -71.10200000
C      -42.06780000     -31.79170000     -71.35800000
S      -45.00850000     -28.77210000     -72.04690000
S      -42.03630000     -30.11900000     -71.90920000
H      -41.23230000     -32.42770000     -71.07650000
