40
Properties=species:S:1:pos:R:3 #=T CELL(abcABC):=T 1.889726e+02=T 90.00000=T Traj:=T positionsangstrom=T Step:=T 0=T Bead:=T pbc="F F F"
C      -45.39760000     -37.52980000     -71.61840000
C      -45.52050000     -36.76890000     -70.40160000
C      -46.77610000     -36.13290000     -70.15300000
C      -47.77480000     -36.07480000     -71.13520000
C      -47.56450000     -36.73390000     -72.36840000
C      -46.35580000     -37.42700000     -72.63010000
H      -44.49070000     -38.11900000     -71.79150000
H      -46.92530000     -35.58250000     -69.24590000
H      -48.21180000     -36.55670000     -73.25510000
H      -46.29120000     -37.97350000     -73.56930000
C      -48.96910000     -35.28630000     -70.78250000
H      -49.01480000     -35.07110000     -69.71470000
H      -49.84820000     -35.84210000     -70.93450000
C      -44.40960000     -36.82560000     -69.40220000
H      -44.72280000     -36.20160000     -68.52750000
H      -44.26000000     -37.84770000     -69.04010000
S      -48.95860000     -33.67590000     -71.74090000
S      -42.84750000     -36.11350000     -70.19530000
C      -47.16820000     -33.11350000     -71.93640000
H      -46.48140000     -33.98660000     -72.12420000
H      -47.19280000     -32.44660000     -72.78120000
C      -43.37360000     -34.69720000     -71.26330000
H      -44.19290000     -35.03530000     -71.89250000
H      -42.49270000     -34.60780000     -71.90640000
C      -43.55500000     -33.44910000     -70.32990000
H      -44.56440000     -33.49240000     -69.78510000
H      -42.78510000     -33.51430000     -69.47860000
C      -46.81180000     -32.22230000     -70.69440000
H      -46.43370000     -32.91860000     -69.89950000
H      -47.71120000     -31.70610000     -70.25090000
C      -45.86970000     -31.09420000     -71.08920000
C      -46.39950000     -29.88350000     -71.54190000
C      -44.46060000     -31.12380000     -71.23970000
H      -47.48450000     -29.71720000     -71.53290000
C      -43.98680000     -30.00360000     -71.91580000
C      -43.44660000     -32.09700000     -71.09010000
C      -42.20890000     -31.64660000     -71.55350000
S      -45.17700000     -28.76830000     -72.10770000
S      -42.27110000     -30.06530000     -72.17650000
H      -41.38000000     -32.31680000     -71.69690000
