40
Properties=species:S:1:pos:R:3 #=T CELL(abcABC):=T 1.889726e+02=T 90.00000=T Traj:=T positionsangstrom=T Step:=T 0=T Bead:=T pbc="F F F"
C      -45.23620000     -37.53420000     -71.66210000
C      -45.37550000     -36.85340000     -70.45360000
C      -46.61890000     -36.19670000     -70.17970000
C      -47.69980000     -36.29650000     -71.00060000
C      -47.53930000     -36.99120000     -72.26680000
C      -46.34350000     -37.57980000     -72.51430000
H      -44.28270000     -37.88370000     -72.01190000
H      -46.69800000     -35.68230000     -69.23570000
H      -48.45620000     -37.14750000     -72.89270000
H      -46.25940000     -38.01820000     -73.48860000
C      -48.89370000     -35.33090000     -70.76890000
H      -48.93130000     -34.99450000     -69.72310000
H      -49.85410000     -35.76950000     -71.07540000
C      -44.25000000     -36.66100000     -69.47800000
H      -44.52240000     -36.01630000     -68.65180000
H      -44.00950000     -37.62500000     -69.14140000
S      -48.85050000     -33.79510000     -71.86180000
S      -42.68910000     -36.16520000     -70.27610000
C      -47.05330000     -33.27950000     -71.54170000
H      -46.49780000     -34.07070000     -71.23160000
H      -46.49270000     -33.03010000     -72.51270000
C      -43.10070000     -34.52040000     -71.06670000
H      -43.95580000     -34.61850000     -71.76050000
H      -42.24210000     -34.11240000     -71.63860000
C      -43.55680000     -33.31230000     -70.16860000
H      -44.46060000     -33.49980000     -69.57560000
H      -42.89770000     -33.19170000     -69.28620000
C      -46.84280000     -32.17930000     -70.45360000
H      -46.28690000     -32.56940000     -69.56570000
H      -47.78850000     -31.81530000     -70.16310000
C      -46.07100000     -30.96750000     -70.96180000
C      -46.54440000     -29.75550000     -71.42550000
C      -44.63790000     -31.07710000     -71.31130000
H      -47.61080000     -29.57940000     -71.57210000
C      -44.18970000     -29.94570000     -72.03080000
C      -43.55050000     -32.00670000     -71.03540000
C      -42.35790000     -31.53090000     -71.54740000
S      -45.34900000     -28.74840000     -72.22580000
S      -42.49350000     -29.98730000     -72.41210000
H      -41.39390000     -32.07880000     -71.47090000
