40
Properties=species:S:1:pos:R:3 #=T CELL(abcABC):=T 1.889726e+02=T 90.00000=T Traj:=T positionsangstrom=T Step:=T 0=T Bead:=T pbc="F F F"
C      -44.99710000     -37.87650000     -71.38010000
C      -45.06600000     -36.83330000     -70.42370000
C      -46.26800000     -36.14420000     -70.17150000
C      -47.40060000     -36.39870000     -70.98900000
C      -47.32960000     -37.36460000     -71.99510000
C      -46.13110000     -38.13370000     -72.16400000
H      -44.09240000     -38.41180000     -71.46940000
H      -46.21870000     -35.38610000     -69.34580000
H      -48.19340000     -37.60800000     -72.57360000
H      -46.17160000     -38.92320000     -72.88810000
C      -48.66190000     -35.59980000     -70.77620000
H      -48.82810000     -35.39750000     -69.75560000
H      -49.55150000     -36.14010000     -71.02830000
C      -43.93430000     -36.54420000     -69.43980000
H      -44.37060000     -35.88010000     -68.67270000
H      -43.66200000     -37.46840000     -68.97360000
S      -48.76210000     -33.89800000     -71.67820000
S      -42.43280000     -35.77050000     -70.31530000
C      -47.00050000     -33.22390000     -71.48060000
H      -46.25460000     -34.11490000     -71.37940000
H      -46.72570000     -32.67850000     -72.35260000
C      -43.27910000     -34.39950000     -71.28250000
H      -44.17830000     -34.83680000     -71.79540000
H      -42.58340000     -34.12020000     -72.10860000
C      -43.62820000     -33.21380000     -70.37240000
H      -44.48580000     -33.60930000     -69.86690000
H      -42.73970000     -33.19160000     -69.66210000
C      -46.88730000     -32.13060000     -70.35210000
H      -46.31530000     -32.58510000     -69.48650000
H      -47.92650000     -31.84000000     -69.99050000
C      -46.21010000     -30.92820000     -70.95640000
C      -46.80080000     -29.77510000     -71.39230000
C      -44.81340000     -31.00530000     -71.35520000
H      -47.77440000     -29.40230000     -71.00540000
C      -44.43330000     -29.83540000     -72.03710000
C      -43.73090000     -31.95970000     -71.27450000
C      -42.56950000     -31.53230000     -71.90120000
S      -45.71700000     -28.67150000     -72.17050000
S      -42.77020000     -29.96780000     -72.67360000
H      -41.60350000     -31.97300000     -72.15040000
