40
Properties=species:S:1:pos:R:3 #=T CELL(abcABC):=T 1.889726e+02=T 90.00000=T Traj:=T positionsangstrom=T Step:=T 0=T Bead:=T pbc="F F F"
C      -45.81310000     -31.32270000     -67.74870000
C      -45.44870000     -30.78410000     -68.98080000
C      -44.10620000     -30.87390000     -69.36930000
C      -43.11400000     -31.55020000     -68.59650000
C      -43.52460000     -31.99460000     -67.31950000
C      -44.84020000     -31.87650000     -66.92000000
H      -46.78830000     -31.17070000     -67.48940000
H      -43.80780000     -30.40010000     -70.32140000
H      -42.69640000     -32.42690000     -66.67180000
H      -45.07990000     -32.34360000     -65.94130000
C      -41.78740000     -31.99070000     -69.20380000
H      -41.01350000     -31.90520000     -68.50330000
H      -41.49460000     -31.42970000     -70.02090000
C      -46.50630000     -30.24380000     -69.92770000
H      -46.79630000     -29.23340000     -69.63360000
H      -45.97890000     -30.18270000     -70.84680000
S      -41.87610000     -33.75640000     -69.65280000
S      -48.10080000     -31.02770000     -70.15480000
C      -42.68790000     -33.89040000     -71.31670000
H      -42.51030000     -32.96390000     -71.88320000
H      -42.01220000     -34.65880000     -71.79910000
C      -47.77620000     -32.55360000     -71.13540000
H      -48.74530000     -33.05320000     -71.21220000
H      -47.27120000     -33.33260000     -70.64700000
C      -47.05360000     -32.26530000     -72.50020000
H      -47.70440000     -31.59190000     -73.08110000
H      -46.08320000     -31.69530000     -72.42670000
C      -44.24480000     -34.17310000     -71.22860000
H      -44.64670000     -33.14650000     -71.26700000
H      -44.45210000     -34.66150000     -70.29850000
C      -44.77960000     -34.99530000     -72.34750000
C      -44.12680000     -36.12870000     -72.84280000
C      -45.95440000     -34.70620000     -73.14580000
H      -43.38830000     -36.73620000     -72.37220000
C      -46.19940000     -35.72200000     -74.10460000
C      -46.85480000     -33.55370000     -73.33700000
C      -47.75300000     -33.87950000     -74.30660000
S      -45.00750000     -36.95230000     -74.11390000
S      -47.55540000     -35.44620000     -75.11570000
H      -48.59080000     -33.31780000     -74.60420000
