40
Properties=species:S:1:pos:R:3 #=T CELL(abcABC):=T 1.889726e+02=T 90.00000=T Traj:=T positionsangstrom=T Step:=T 0=T Bead:=T pbc="F F F"
C      -45.89210000     -31.24380000     -67.66380000
C      -45.59250000     -30.89120000     -69.00930000
C      -44.32700000     -31.25230000     -69.51810000
C      -43.33300000     -31.83040000     -68.72840000
C      -43.68920000     -32.07650000     -67.41130000
C      -44.97610000     -31.93920000     -66.88410000
H      -46.93760000     -31.12190000     -67.31420000
H      -44.01830000     -31.09520000     -70.52460000
H      -42.90580000     -32.52270000     -66.81820000
H      -45.09830000     -32.22570000     -65.83780000
C      -41.94680000     -32.06670000     -69.25190000
H      -41.25980000     -31.76760000     -68.43440000
H      -41.69740000     -31.45830000     -70.22400000
C      -46.48150000     -30.01740000     -69.86560000
H      -46.83140000     -29.09710000     -69.35340000
H      -45.98410000     -29.60990000     -70.77870000
S      -41.77920000     -33.88440000     -69.56530000
S      -48.16900000     -30.94510000     -70.40180000
C      -42.65410000     -33.94390000     -71.31580000
H      -42.29590000     -33.21060000     -72.04750000
H      -42.26220000     -34.94990000     -71.50340000
C      -47.61220000     -32.44250000     -71.18450000
H      -48.53400000     -33.01350000     -71.44050000
H      -46.96090000     -33.01220000     -70.44170000
C      -46.80410000     -32.22380000     -72.51510000
H      -47.36730000     -31.54950000     -73.19110000
H      -45.85970000     -31.79840000     -72.24570000
C      -44.15970000     -34.09520000     -71.17910000
H      -44.61850000     -33.12470000     -71.09530000
H      -44.44630000     -34.58750000     -70.22510000
C      -44.77260000     -34.94800000     -72.26930000
C      -44.21380000     -36.16580000     -72.56280000
C      -45.79660000     -34.57510000     -73.29240000
H      -43.38390000     -36.68660000     -72.13280000
C      -46.07970000     -35.59740000     -74.09060000
C      -46.75050000     -33.51500000     -73.33150000
C      -47.69320000     -33.76740000     -74.30060000
S      -45.09780000     -36.97790000     -73.85700000
S      -47.41770000     -35.34810000     -75.22450000
H      -48.59930000     -33.23760000     -74.53500000
