40
Properties=species:S:1:pos:R:3 #=T CELL(abcABC):=T 1.889726e+02=T 90.00000=T Traj:=T positionsangstrom=T Step:=T 0=T Bead:=T pbc="F F F"
C      -44.78880000     -37.91030000     -69.77590000
C      -44.55740000     -36.52420000     -69.67380000
C      -45.62960000     -35.61200000     -69.57590000
C      -46.94780000     -36.00400000     -69.68980000
C      -47.16730000     -37.40290000     -69.78900000
C      -46.09960000     -38.31290000     -69.82850000
H      -43.99990000     -38.62180000     -69.60910000
H      -45.34860000     -34.53060000     -69.42470000
H      -48.20040000     -37.71230000     -69.67100000
H      -46.40680000     -39.34560000     -69.76740000
C      -48.17660000     -35.18470000     -69.41890000
H      -47.97690000     -34.44370000     -68.58890000
H      -48.97400000     -35.81620000     -69.08440000
C      -43.16090000     -35.92490000     -69.51390000
H      -43.22000000     -34.95070000     -69.02670000
H      -42.38540000     -36.60060000     -68.91080000
S      -48.94480000     -34.32700000     -70.80130000
S      -42.24580000     -35.61750000     -71.06570000
C      -47.55030000     -33.32200000     -71.59600000
H      -46.64390000     -33.95460000     -71.97020000
H      -47.88050000     -32.87040000     -72.50360000
C      -43.38540000     -34.54080000     -72.02090000
H      -44.26760000     -35.13220000     -72.28680000
H      -43.07440000     -34.21130000     -72.98000000
C      -43.82730000     -33.26180000     -71.20770000
H      -44.87540000     -33.44300000     -70.78810000
H      -43.02920000     -33.07030000     -70.40540000
C      -47.03730000     -32.14970000     -70.74900000
H      -46.41570000     -32.60770000     -69.96690000
H      -47.82500000     -31.64230000     -70.15060000
C      -46.27860000     -31.07220000     -71.53750000
C      -46.97400000     -30.00100000     -72.02990000
C      -44.94100000     -31.09870000     -72.11120000
H      -48.02460000     -29.75310000     -71.71590000
C      -44.73260000     -30.02440000     -72.93100000
C      -43.76790000     -32.00670000     -72.02140000
C      -42.66720000     -31.45410000     -72.66770000
S      -46.04150000     -28.87830000     -73.00740000
S      -43.03750000     -29.98700000     -73.46960000
H      -41.74600000     -31.89450000     -72.69370000
