40
Properties=species:S:1:pos:R:3 #=T CELL(abcABC):=T 1.889726e+02=T 90.00000=T Traj:=T positionsangstrom=T Step:=T 0=T Bead:=T pbc="F F F"
C      -46.46850000     -31.65150000     -68.08610000
C      -45.96730000     -30.83850000     -69.10590000
C      -44.58320000     -30.84270000     -69.43410000
C      -43.76150000     -31.74540000     -68.70090000
C      -44.34790000     -32.61800000     -67.73570000
C      -45.65300000     -32.47830000     -67.30300000
H      -47.54360000     -31.57210000     -67.93760000
H      -44.15460000     -30.33240000     -70.27500000
H      -43.71750000     -33.35090000     -67.16590000
H      -46.11300000     -33.11380000     -66.57340000
C      -42.30910000     -31.84320000     -69.00370000
H      -41.67430000     -31.85640000     -68.09680000
H      -41.93290000     -31.06800000     -69.64260000
C      -46.89390000     -29.88310000     -69.89510000
H      -47.34260000     -28.98140000     -69.39620000
H      -46.23490000     -29.37130000     -70.66560000
S      -41.74520000     -33.42250000     -69.87720000
S      -48.22970000     -30.73450000     -70.87850000
C      -42.97240000     -33.90730000     -71.14730000
H      -43.30580000     -33.10240000     -71.72580000
H      -42.42490000     -34.62500000     -71.70750000
C      -47.57240000     -32.39530000     -71.44100000
H      -48.36190000     -32.75440000     -72.12760000
H      -47.48290000     -33.17050000     -70.64590000
C      -46.14870000     -32.31020000     -72.12970000
H      -46.15540000     -31.28760000     -72.48340000
H      -45.31100000     -32.42640000     -71.49260000
C      -44.17300000     -34.73420000     -70.55660000
H      -44.89530000     -34.13760000     -69.98340000
H      -43.72370000     -35.42190000     -69.83820000
C      -44.93950000     -35.40540000     -71.74960000
C      -44.76030000     -36.75920000     -71.98790000
C      -45.55670000     -34.74610000     -72.85180000
H      -44.38780000     -37.41230000     -71.20650000
C      -45.84560000     -35.66380000     -73.92180000
C      -45.99870000     -33.41580000     -73.17730000
C      -46.46200000     -33.30440000     -74.48830000
S      -45.38510000     -37.33890000     -73.57970000
S      -46.40740000     -34.85580000     -75.40580000
H      -46.91550000     -32.40860000     -74.90700000
