40
Properties=species:S:1:pos:R:3 #=T CELL(abcABC):=T 1.889726e+02=T 90.00000=T Traj:=T positionsangstrom=T Step:=T 0=T Bead:=T pbc="F F F"
C      -46.58290000     -31.71040000     -68.01870000
C      -45.97720000     -31.01270000     -69.03820000
C      -44.58120000     -31.00980000     -69.15740000
C      -43.77890000     -31.82360000     -68.32290000
C      -44.40780000     -32.58590000     -67.30690000
C      -45.78350000     -32.42580000     -67.16730000
H      -47.62080000     -31.59190000     -67.70570000
H      -44.17920000     -30.53610000     -70.03140000
H      -43.82250000     -33.27150000     -66.71090000
H      -46.32970000     -32.99560000     -66.44170000
C      -42.33840000     -31.90930000     -68.63650000
H      -41.62530000     -32.04310000     -67.77900000
H      -41.96870000     -31.09150000     -69.26990000
C      -46.71460000     -30.21050000     -70.06390000
H      -46.91950000     -29.18870000     -69.64160000
H      -46.06610000     -30.01460000     -70.89990000
S      -41.99060000     -33.50250000     -69.57060000
S      -48.22080000     -31.00670000     -70.86330000
C      -43.39190000     -33.54980000     -70.87060000
H      -43.65230000     -32.60360000     -71.21280000
H      -42.87270000     -34.11180000     -71.62980000
C      -47.54460000     -32.50730000     -71.75810000
H      -48.36620000     -33.03100000     -72.30300000
H      -47.19540000     -33.11120000     -70.94490000
C      -46.38220000     -32.16840000     -72.65360000
H      -46.60110000     -31.29530000     -73.24370000
H      -45.50930000     -31.91430000     -72.13450000
C      -44.66320000     -34.37400000     -70.58890000
H      -45.42120000     -33.71140000     -70.06530000
H      -44.44430000     -35.16770000     -69.86180000
C      -45.12040000     -35.14420000     -71.81510000
C      -44.95030000     -36.50450000     -71.90310000
C      -45.58620000     -34.63650000     -73.10270000
H      -44.54840000     -37.15650000     -71.10460000
C      -45.50780000     -35.55930000     -74.10290000
C      -46.02840000     -33.34160000     -73.56130000
C      -46.25600000     -33.36540000     -74.90170000
S      -45.06150000     -37.19870000     -73.52990000
S      -45.98750000     -34.93990000     -75.66270000
H      -46.57750000     -32.51840000     -75.51080000
