40
Properties=species:S:1:pos:R:3 #=T CELL(abcABC):=T 1.889726e+02=T 90.00000=T Traj:=T positionsangstrom=T Step:=T 0=T Bead:=T pbc="F F F"
C      -46.65380000     -31.85290000     -68.10900000
C      -46.00620000     -31.05510000     -69.07190000
C      -44.57660000     -30.99990000     -69.12580000
C      -43.86680000     -31.82590000     -68.21200000
C      -44.58330000     -32.53610000     -67.20920000
C      -45.97390000     -32.50270000     -67.06740000
H      -47.74020000     -31.94800000     -68.11460000
H      -44.09150000     -30.23630000     -69.74490000
H      -44.04610000     -33.12130000     -66.49400000
H      -46.49070000     -33.11840000     -66.37310000
C      -42.36540000     -32.02230000     -68.45440000
H      -41.81260000     -32.21010000     -67.53610000
H      -41.99050000     -31.17460000     -69.00970000
C      -46.82420000     -30.11730000     -69.96310000
H      -47.41400000     -29.49410000     -69.32600000
H      -46.22290000     -29.54790000     -70.65830000
S      -42.18240000     -33.70540000     -69.29590000
S      -48.14080000     -31.00110000     -70.87900000
C      -43.15960000     -33.54150000     -70.84850000
H      -43.40240000     -32.45470000     -70.89020000
H      -42.52500000     -33.76370000     -71.76840000
C      -47.40520000     -32.41430000     -71.76720000
H      -48.23030000     -32.86380000     -72.34570000
H      -47.07120000     -33.19510000     -71.06680000
C      -46.31090000     -32.06330000     -72.88270000
H      -46.77290000     -31.24340000     -73.48860000
H      -45.42600000     -31.60410000     -72.41280000
C      -44.52430000     -34.25060000     -70.73140000
H      -45.29060000     -33.51120000     -70.44860000
H      -44.57400000     -34.90950000     -69.78590000
C      -44.81220000     -35.04020000     -71.97220000
C      -44.59390000     -36.41330000     -72.04390000
C      -45.37760000     -34.50470000     -73.20600000
H      -44.16920000     -37.07200000     -71.24720000
C      -45.47150000     -35.55070000     -74.17030000
C      -45.96080000     -33.28440000     -73.69450000
C      -46.46950000     -33.43820000     -74.98240000
S      -45.08770000     -37.11600000     -73.59710000
S      -46.08290000     -35.02470000     -75.65820000
H      -46.89310000     -32.61550000     -75.56760000
