40
Properties=species:S:1:pos:R:3 #=T CELL(abcABC):=T 1.889726e+02=T 90.00000=T Traj:=T positionsangstrom=T Step:=T 0=T Bead:=T pbc="F F F"
C      -46.85220000     -31.75790000     -67.95210000
C      -46.14260000     -31.10620000     -69.03440000
C      -44.74640000     -31.13290000     -69.08370000
C      -44.01810000     -31.90920000     -68.14220000
C      -44.70240000     -32.67830000     -67.25380000
C      -46.10650000     -32.57590000     -67.14730000
H      -47.94090000     -31.59720000     -67.84220000
H      -44.21750000     -30.67380000     -69.95860000
H      -44.23060000     -33.44050000     -66.65620000
H      -46.40640000     -32.83940000     -66.15890000
C      -42.55870000     -32.08540000     -68.26760000
H      -42.02280000     -32.07750000     -67.31140000
H      -42.14910000     -31.23060000     -68.84650000
C      -46.83560000     -30.21220000     -70.01620000
H      -47.44250000     -29.36250000     -69.58470000
H      -46.02890000     -29.76420000     -70.68760000
S      -42.12350000     -33.69420000     -69.06940000
S      -48.18400000     -30.99140000     -71.07650000
C      -42.87940000     -33.65390000     -70.77320000
H      -42.66640000     -32.67400000     -71.20660000
H      -42.32780000     -34.31630000     -71.45680000
C      -47.33950000     -32.47540000     -71.85310000
H      -48.19700000     -32.94270000     -72.32840000
H      -47.02520000     -33.17360000     -71.04920000
C      -46.18980000     -32.11400000     -72.82170000
H      -46.31440000     -31.22500000     -73.39330000
H      -45.25530000     -31.95410000     -72.22060000
C      -44.41140000     -34.09530000     -70.81450000
H      -45.03780000     -33.30770000     -70.72100000
H      -44.56330000     -34.73890000     -69.98750000
C      -44.83050000     -34.94660000     -72.02550000
C      -44.36140000     -36.28180000     -72.09560000
C      -45.39730000     -34.46970000     -73.26310000
H      -43.84410000     -36.88390000     -71.38360000
C      -45.55190000     -35.55690000     -74.18170000
C      -45.98930000     -33.26850000     -73.73310000
C      -46.46600000     -33.38250000     -75.03020000
S      -44.75600000     -37.02840000     -73.59740000
S      -46.31060000     -35.00210000     -75.69290000
H      -47.01570000     -32.61330000     -75.56750000
