40
Properties=species:S:1:pos:R:3 #=T CELL(abcABC):=T 1.889726e+02=T 90.00000=T Traj:=T positionsangstrom=T Step:=T 0=T Bead:=T pbc="F F F"
C      -47.16740000     -31.54480000     -68.11110000
C      -46.39960000     -30.95080000     -69.19450000
C      -45.01090000     -31.21810000     -69.26420000
C      -44.38660000     -32.01050000     -68.26090000
C      -45.14240000     -32.72900000     -67.37060000
C      -46.51410000     -32.45220000     -67.23190000
H      -48.19170000     -31.24380000     -67.96040000
H      -44.52540000     -30.81470000     -70.11020000
H      -44.70110000     -33.28380000     -66.56320000
H      -47.12060000     -32.98800000     -66.51450000
C      -42.81950000     -32.18190000     -68.31770000
H      -42.44030000     -32.00920000     -67.28280000
H      -42.38770000     -31.41990000     -68.96140000
C      -47.01710000     -29.97310000     -70.08630000
H      -47.68250000     -29.23370000     -69.48980000
H      -46.26220000     -29.43820000     -70.67670000
S      -42.17630000     -33.93300000     -68.83560000
S      -48.28360000     -30.75590000     -71.22780000
C      -42.55120000     -33.90870000     -70.56680000
H      -42.20270000     -32.97050000     -70.99570000
H      -41.89120000     -34.66390000     -71.06350000
C      -47.42570000     -32.39910000     -71.65190000
H      -48.23520000     -33.05640000     -71.98160000
H      -47.09220000     -32.71390000     -70.67090000
C      -46.24020000     -32.20490000     -72.62770000
H      -46.48630000     -31.30630000     -73.28830000
H      -45.32240000     -31.99610000     -72.09650000
C      -44.01110000     -34.12210000     -70.86250000
H      -44.51680000     -33.17670000     -70.98310000
H      -44.52030000     -34.63180000     -69.98710000
C      -44.32680000     -34.97620000     -72.09140000
C      -43.81140000     -36.19300000     -72.32380000
C      -45.17930000     -34.53660000     -73.20660000
H      -42.96930000     -36.56910000     -71.73680000
C      -45.34640000     -35.52200000     -74.11870000
C      -46.01180000     -33.35750000     -73.60450000
C      -46.62900000     -33.53870000     -74.78190000
S      -44.36760000     -36.90870000     -73.80040000
S      -46.28660000     -35.09070000     -75.52490000
H      -47.12560000     -32.78850000     -75.31860000
