40
Properties=species:S:1:pos:R:3 #=T CELL(abcABC):=T 1.889726e+02=T 90.00000=T Traj:=T positionsangstrom=T Step:=T 0=T Bead:=T pbc="F F F"
C      -43.00080000     -36.58010000     -69.96000000
C      -43.69950000     -35.62080000     -69.26510000
C      -45.06500000     -35.67250000     -69.29600000
C      -45.74370000     -36.57120000     -70.14090000
C      -45.03770000     -37.53310000     -70.91640000
C      -43.68080000     -37.54640000     -70.76750000
H      -41.87150000     -36.73770000     -69.85710000
H      -45.59720000     -34.80220000     -68.88650000
H      -45.59970000     -38.27140000     -71.48120000
H      -43.11720000     -38.40470000     -71.16770000
C      -47.28260000     -36.51470000     -70.10780000
H      -47.65830000     -35.77450000     -69.39020000
H      -47.66960000     -37.57580000     -69.85220000
C      -42.86470000     -34.67730000     -68.45000000
H      -42.61180000     -35.17120000     -67.43940000
H      -41.88810000     -34.42300000     -68.83000000
S      -47.89830000     -35.93230000     -71.80490000
S      -43.86570000     -33.14080000     -68.00050000
C      -47.21960000     -34.16780000     -71.88950000
H      -47.74060000     -33.79790000     -72.71270000
H      -47.39850000     -33.79690000     -70.84730000
C      -44.01680000     -32.17670000     -69.60550000
H      -43.62610000     -32.87410000     -70.37980000
H      -43.29890000     -31.38590000     -69.52100000
C      -45.49020000     -31.68740000     -69.83970000
H      -46.08820000     -32.60620000     -69.86920000
H      -45.93260000     -31.12620000     -68.96010000
C      -45.75320000     -34.05450000     -72.17310000
H      -45.35620000     -34.95840000     -72.73640000
H      -45.11850000     -34.16700000     -71.27560000
C      -45.42230000     -32.84120000     -72.96010000
C      -45.25710000     -32.81880000     -74.35730000
C      -45.51160000     -31.48710000     -72.46100000
H      -45.33140000     -33.74950000     -75.04160000
C      -45.43670000     -30.50550000     -73.44230000
C      -45.56780000     -30.93750000     -71.12980000
C      -45.66720000     -29.53110000     -71.18600000
S      -45.28990000     -31.25100000     -75.07530000
S      -45.72330000     -28.87990000     -72.81680000
H      -45.77900000     -28.96110000     -70.29940000
