40
Properties=species:S:1:pos:R:3 #=T CELL(abcABC):=T 1.889726e+02=T 90.00000=T Traj:=T positionsangstrom=T Step:=T 0=T Bead:=T pbc="F F F"
C      -47.54380000     -31.18970000     -68.70610000
C      -46.58820000     -30.77240000     -69.67430000
C      -45.31080000     -31.10110000     -69.42510000
C      -44.91430000     -31.85670000     -68.25610000
C      -45.81530000     -32.27380000     -67.37420000
C      -47.13770000     -31.84080000     -67.57430000
H      -48.62010000     -30.88790000     -68.86870000
H      -44.45870000     -30.78180000     -70.00220000
H      -45.52890000     -32.72600000     -66.42430000
H      -47.87440000     -32.20450000     -66.85130000
C      -43.47090000     -32.18720000     -68.07670000
H      -43.17720000     -31.68900000     -67.14660000
H      -42.91230000     -31.76620000     -68.92930000
C      -47.05510000     -30.02240000     -70.84320000
H      -47.49010000     -29.04380000     -70.58460000
H      -46.25300000     -29.79280000     -71.50960000
S      -43.16660000     -34.02060000     -67.85650000
S      -48.39410000     -30.81260000     -71.81100000
C      -43.35710000     -34.73200000     -69.52340000
H      -42.37790000     -34.97250000     -69.84990000
H      -43.90170000     -35.70430000     -69.29460000
C      -47.57570000     -32.53440000     -72.05710000
H      -48.34330000     -33.07180000     -72.62500000
H      -47.51870000     -33.04160000     -71.09850000
C      -46.22030000     -32.37730000     -72.76170000
H      -46.29970000     -31.54310000     -73.50410000
H      -45.47700000     -32.15540000     -72.01540000
C      -44.10110000     -34.04500000     -70.72510000
H      -43.77710000     -33.06890000     -70.90050000
H      -45.15410000     -33.81730000     -70.46260000
C      -44.01270000     -34.87390000     -71.96590000
C      -43.18150000     -35.96440000     -72.08840000
C      -44.71850000     -34.57360000     -73.13580000
H      -42.53290000     -36.32760000     -71.27350000
C      -44.48850000     -35.52730000     -74.18020000
C      -45.77960000     -33.63070000     -73.57250000
C      -46.18930000     -33.78370000     -74.86230000
S      -43.37710000     -36.76690000     -73.64330000
S      -45.47000000     -35.24250000     -75.62150000
H      -46.92980000     -33.15270000     -75.40100000
