40
Properties=species:S:1:pos:R:3 #=T CELL(abcABC):=T 1.889726e+02=T 90.00000=T Traj:=T positionsangstrom=T Step:=T 0=T Bead:=T pbc="F F F"
C      -47.85010000     -31.10660000     -68.46080000
C      -46.97010000     -30.65550000     -69.42130000
C      -45.62660000     -31.04500000     -69.33910000
C      -45.09480000     -31.81300000     -68.29740000
C      -45.99670000     -32.22580000     -67.34230000
C      -47.34990000     -31.82020000     -67.41340000
H      -48.83320000     -30.81740000     -68.45460000
H      -44.95150000     -30.68240000     -70.11770000
H      -45.67770000     -33.03930000     -66.69550000
H      -48.00220000     -32.03730000     -66.59410000
C      -43.67570000     -32.12760000     -68.21500000
H      -43.14220000     -31.41320000     -67.54810000
H      -43.23340000     -31.86880000     -69.23440000
C      -47.41110000     -29.88890000     -70.62800000
H      -48.02070000     -29.08400000     -70.30580000
H      -46.50500000     -29.47760000     -71.10780000
S      -43.24460000     -33.90910000     -67.79280000
S      -48.31620000     -30.85480000     -71.95190000
C      -43.38870000     -34.78660000     -69.40000000
H      -42.37490000     -35.02530000     -69.69210000
H      -43.75470000     -35.76540000     -69.23750000
C      -47.36720000     -32.43920000     -72.39740000
H      -47.98100000     -32.87320000     -73.15710000
H      -47.12720000     -33.04710000     -71.51590000
C      -45.91790000     -32.23390000     -72.98000000
H      -45.74010000     -31.51600000     -73.78840000
H      -45.27310000     -31.83380000     -72.17930000
C      -43.99220000     -34.15430000     -70.65150000
H      -43.45900000     -33.14450000     -70.85830000
H      -45.03830000     -34.00880000     -70.51320000
C      -43.87390000     -34.97580000     -71.92860000
C      -43.07640000     -36.10330000     -72.10230000
C      -44.64900000     -34.69860000     -73.12650000
H      -42.47960000     -36.50570000     -71.33270000
C      -44.50920000     -35.68370000     -74.09620000
C      -45.46700000     -33.60420000     -73.65480000
C      -45.90120000     -33.74280000     -74.95410000
S      -43.32950000     -36.84610000     -73.69800000
S      -45.28240000     -35.31210000     -75.60570000
H      -46.68190000     -33.23890000     -75.40660000
