40
Properties=species:S:1:pos:R:3 #=T CELL(abcABC):=T 1.889726e+02=T 90.00000=T Traj:=T positionsangstrom=T Step:=T 0=T Bead:=T pbc="F F F"
C      -42.98570000     -36.47090000     -70.02640000
C      -43.73120000     -35.45370000     -69.35250000
C      -45.09450000     -35.64760000     -69.36840000
C      -45.74870000     -36.63740000     -70.11350000
C      -44.99240000     -37.57910000     -70.89440000
C      -43.61260000     -37.54840000     -70.71300000
H      -41.90960000     -36.44220000     -69.99010000
H      -45.68990000     -35.16480000     -68.64410000
H      -45.36470000     -38.39710000     -71.58110000
H      -42.95310000     -38.19530000     -71.28770000
C      -47.24710000     -36.61020000     -70.17550000
H      -47.73640000     -36.06410000     -69.36210000
H      -47.60760000     -37.59330000     -70.18310000
C      -42.96110000     -34.42380000     -68.54480000
H      -42.44640000     -34.94360000     -67.78060000
H      -42.17760000     -34.02060000     -69.20130000
S      -47.91040000     -35.98070000     -71.80010000
S      -43.94720000     -33.10190000     -67.90330000
C      -47.30150000     -34.26700000     -71.92480000
H      -47.97100000     -33.76400000     -72.62250000
H      -47.61890000     -33.68240000     -71.08670000
C      -44.05930000     -32.05860000     -69.41590000
H      -43.51360000     -32.46430000     -70.24040000
H      -43.61460000     -31.07080000     -69.11520000
C      -45.56120000     -31.77940000     -69.80240000
H      -46.18950000     -32.64120000     -69.88340000
H      -46.03380000     -31.21390000     -68.97910000
C      -45.81260000     -34.15740000     -72.30590000
H      -45.68780000     -34.96820000     -73.08360000
H      -45.17260000     -34.44120000     -71.48570000
C      -45.58210000     -32.88950000     -73.06690000
C      -45.30180000     -32.85060000     -74.39950000
C      -45.53490000     -31.54490000     -72.44610000
H      -45.17690000     -33.72650000     -75.16410000
C      -45.42090000     -30.56400000     -73.37830000
C      -45.63320000     -30.96970000     -71.09970000
C      -45.64390000     -29.56770000     -71.17470000
S      -45.11560000     -31.15200000     -75.00160000
S      -45.58510000     -28.95920000     -72.85210000
H      -45.73450000     -28.97210000     -70.28560000
