40
Properties=species:S:1:pos:R:3 #=T CELL(abcABC):=T 1.889726e+02=T 90.00000=T Traj:=T positionsangstrom=T Step:=T 0=T Bead:=T pbc="F F F"
C      -46.97980000     -32.90900000     -69.47050000
C      -45.81960000     -32.39370000     -68.80360000
C      -45.23300000     -31.18380000     -69.17560000
C      -45.79960000     -30.43600000     -70.18480000
C      -46.95710000     -30.92910000     -70.79480000
C      -47.51940000     -32.14420000     -70.49630000
H      -47.41300000     -33.84950000     -69.18470000
H      -44.29850000     -30.89950000     -68.65650000
H      -47.24210000     -30.32140000     -71.61230000
H      -48.39230000     -32.55480000     -71.09120000
C      -45.06100000     -29.24690000     -70.77220000
H      -44.52500000     -28.80830000     -69.90840000
H      -45.79700000     -28.54540000     -71.09690000
C      -45.23250000     -33.30440000     -67.73150000
H      -44.34080000     -32.81920000     -67.30110000
H      -45.90820000     -33.51960000     -66.96290000
S      -43.77010000     -29.47170000     -72.06620000
S      -44.64390000     -34.91150000     -68.48410000
C      -44.43000000     -30.99750000     -73.11400000
H      -45.52250000     -30.85190000     -72.90160000
H      -44.13210000     -30.75770000     -74.21700000
C      -43.24990000     -34.47360000     -69.67290000
H      -42.33770000     -34.41880000     -69.08070000
H      -43.50680000     -33.51660000     -70.00140000
C      -43.06930000     -35.45740000     -70.90010000
H      -42.25220000     -34.95660000     -71.47060000
H      -42.71950000     -36.44500000     -70.52610000
C      -43.90950000     -32.38100000     -72.65890000
H      -43.60680000     -32.40600000     -71.57200000
H      -43.06460000     -32.70990000     -73.20310000
C      -44.93690000     -33.45940000     -73.00340000
C      -46.02120000     -33.13280000     -73.71350000
C      -44.99810000     -34.78090000     -72.52660000
H      -46.27360000     -32.15310000     -74.21810000
C      -46.10650000     -35.49920000     -73.00300000
C      -44.30340000     -35.76880000     -71.77170000
C      -44.83390000     -37.00240000     -71.62020000
S      -47.09290000     -34.52120000     -74.04670000
S      -46.42450000     -37.06220000     -72.38500000
H      -44.56590000     -37.70160000     -70.83820000
