40
Properties=species:S:1:pos:R:3 #=T CELL(abcABC):=T 1.889726e+02=T 90.00000=T Traj:=T positionsangstrom=T Step:=T 0=T Bead:=T pbc="F F F"
C      -47.19620000     -33.03890000     -69.70800000
C      -46.09810000     -32.57250000     -69.01790000
C      -45.50010000     -31.37040000     -69.42900000
C      -45.94800000     -30.74170000     -70.61040000
C      -47.00120000     -31.23760000     -71.30720000
C      -47.71000000     -32.34530000     -70.80920000
H      -47.68000000     -33.99330000     -69.35530000
H      -44.66860000     -30.86560000     -68.90070000
H      -47.44060000     -30.94410000     -72.28080000
H      -48.57500000     -32.69200000     -71.33120000
C      -45.23310000     -29.43840000     -71.07480000
H      -44.92080000     -28.91540000     -70.16180000
H      -45.90120000     -28.84520000     -71.69320000
C      -45.59200000     -33.26280000     -67.81970000
H      -45.27240000     -32.57220000     -66.98210000
H      -46.48730000     -33.83290000     -67.40800000
S      -43.55110000     -29.76720000     -71.76580000
S      -44.40260000     -34.67890000     -68.16240000
C      -43.98170000     -31.01440000     -73.05620000
H      -45.04480000     -30.76340000     -73.18390000
H      -43.27710000     -30.81240000     -73.82380000
C      -43.21190000     -34.07530000     -69.49140000
H      -42.19890000     -33.93310000     -69.10970000
H      -43.55190000     -33.03380000     -69.79480000
C      -43.14450000     -34.99380000     -70.69710000
H      -42.54900000     -34.48050000     -71.42680000
H      -42.55550000     -35.87020000     -70.56900000
C      -43.81500000     -32.49270000     -72.65880000
H      -43.75120000     -32.47860000     -71.54970000
H      -42.89350000     -32.84660000     -73.04710000
C      -44.99710000     -33.37220000     -73.00070000
C      -45.96720000     -33.19420000     -74.05300000
C      -45.15280000     -34.64720000     -72.38610000
H      -46.18550000     -32.31720000     -74.63380000
C      -46.21120000     -35.36970000     -72.90800000
C      -44.41560000     -35.39330000     -71.40160000
C      -44.98580000     -36.63140000     -71.21670000
S      -46.98140000     -34.61580000     -74.22080000
S      -46.30600000     -37.04360000     -72.31250000
H      -44.63970000     -37.29470000     -70.46440000
