40
Properties=species:S:1:pos:R:3 #=T CELL(abcABC):=T 1.889726e+02=T 90.00000=T Traj:=T positionsangstrom=T Step:=T 0=T Bead:=T pbc="F F F"
C      -47.07510000     -33.25970000     -69.90410000
C      -46.07610000     -32.72000000     -69.09040000
C      -45.50480000     -31.45880000     -69.51450000
C      -45.96340000     -30.75300000     -70.62780000
C      -47.04230000     -31.26320000     -71.35380000
C      -47.56990000     -32.49720000     -70.97920000
H      -47.63970000     -34.20800000     -69.70160000
H      -44.71870000     -31.00770000     -68.81100000
H      -47.46250000     -30.68550000     -72.21060000
H      -48.47640000     -32.85960000     -71.58300000
C      -45.33330000     -29.42080000     -70.98320000
H      -45.14530000     -28.75880000     -70.07340000
H      -46.01650000     -28.94120000     -71.66750000
C      -45.62890000     -33.36980000     -67.82310000
H      -45.02110000     -32.63220000     -67.27920000
H      -46.40610000     -33.76850000     -67.19750000
S      -43.69720000     -29.67850000     -71.84770000
S      -44.50180000     -34.80860000     -68.14870000
C      -44.12580000     -30.94160000     -73.05770000
H      -45.20000000     -30.87700000     -73.28190000
H      -43.69320000     -30.56010000     -73.99890000
C      -43.45680000     -34.05640000     -69.48090000
H      -42.57590000     -33.66520000     -68.92200000
H      -43.98330000     -33.21340000     -69.85030000
C      -43.08310000     -35.09200000     -70.60390000
H      -42.32790000     -34.64570000     -71.30920000
H      -42.61780000     -35.95490000     -70.03150000
C      -43.75600000     -32.38340000     -72.61490000
H      -43.74260000     -32.48430000     -71.49230000
H      -42.69200000     -32.67050000     -72.88300000
C      -44.71790000     -33.42660000     -73.03140000
C      -45.53240000     -33.23000000     -74.14630000
C      -45.03160000     -34.70720000     -72.36660000
H      -45.51690000     -32.35570000     -74.89720000
C      -46.13530000     -35.32620000     -72.96050000
C      -44.33880000     -35.48510000     -71.35170000
C      -45.07590000     -36.61820000     -71.06030000
S      -46.80500000     -34.46630000     -74.26370000
S      -46.48990000     -36.84000000     -72.09410000
H      -44.82170000     -37.39380000     -70.31000000
