40
Properties=species:S:1:pos:R:3 #=T CELL(abcABC):=T 1.889726e+02=T 90.00000=T Traj:=T positionsangstrom=T Step:=T 0=T Bead:=T pbc="F F F"
C      -47.06300000     -33.36140000     -69.97400000
C      -46.17570000     -32.72220000     -69.07140000
C      -45.69680000     -31.44860000     -69.42590000
C      -46.11970000     -30.75550000     -70.57390000
C      -47.03460000     -31.39950000     -71.45690000
C      -47.39080000     -32.70260000     -71.14500000
H      -47.38560000     -34.37360000     -69.81280000
H      -44.99100000     -30.91170000     -68.86040000
H      -47.33860000     -30.88950000     -72.30420000
H      -48.09240000     -33.34310000     -71.79250000
C      -45.52500000     -29.43280000     -70.90610000
H      -45.34780000     -28.83670000     -70.06630000
H      -46.18040000     -28.83280000     -71.55690000
C      -45.70380000     -33.51040000     -67.74250000
H      -45.18220000     -32.78000000     -67.09180000
H      -46.57150000     -33.91930000     -67.21860000
S      -43.92820000     -29.51450000     -71.84650000
S      -44.56890000     -34.92780000     -68.14470000
C      -44.17930000     -30.91140000     -73.12910000
H      -45.22190000     -30.92660000     -73.48520000
H      -43.56750000     -30.61450000     -74.04330000
C      -43.15670000     -34.36200000     -69.18760000
H      -42.23680000     -34.53380000     -68.59450000
H      -43.27770000     -33.31960000     -69.34930000
C      -43.00180000     -35.21770000     -70.49840000
H      -42.23180000     -34.81950000     -71.16190000
H      -42.72960000     -36.18990000     -70.13710000
C      -43.60840000     -32.29080000     -72.69490000
H      -43.42050000     -32.31310000     -71.67080000
H      -42.66520000     -32.51080000     -73.24470000
C      -44.56040000     -33.40460000     -73.08300000
C      -45.40520000     -33.24720000     -74.18640000
C      -44.89760000     -34.64970000     -72.41970000
H      -45.25340000     -32.46520000     -75.01380000
C      -45.98470000     -35.29230000     -73.02250000
C      -44.32980000     -35.40850000     -71.28800000
C      -45.11890000     -36.50750000     -71.01420000
S      -46.66420000     -34.44470000     -74.40240000
S      -46.56290000     -36.60930000     -72.00700000
H      -44.93890000     -37.21870000     -70.18010000
