40
Properties=species:S:1:pos:R:3 #=T CELL(abcABC):=T 1.889726e+02=T 90.00000=T Traj:=T positionsangstrom=T Step:=T 0=T Bead:=T pbc="F F F"
C      -44.52450000     -34.85800000     -68.22580000
C      -44.96900000     -33.54060000     -68.17840000
C      -44.16960000     -32.48390000     -68.62150000
C      -42.97090000     -32.70300000     -69.32160000
C      -42.47990000     -33.99950000     -69.39550000
C      -43.24960000     -35.09900000     -68.83550000
H      -45.09900000     -35.66350000     -67.82260000
H      -44.69310000     -31.51180000     -68.61920000
H      -41.54110000     -34.23840000     -69.93090000
H      -42.92340000     -36.12750000     -68.82050000
C      -42.09120000     -31.53410000     -69.94940000
H      -41.10560000     -31.62430000     -69.55610000
H      -42.41660000     -30.59810000     -69.53360000
C      -46.31330000     -33.21240000     -67.57340000
H      -46.28210000     -33.42560000     -66.46750000
H      -46.54200000     -32.17040000     -67.63110000
S      -42.09770000     -31.55890000     -71.80150000
S      -47.63090000     -34.37280000     -68.11580000
C      -43.71210000     -30.71170000     -72.06900000
H      -43.85270000     -29.78880000     -71.36080000
H      -43.69770000     -30.26640000     -73.07550000
C      -47.28440000     -34.46080000     -69.89600000
H      -47.94350000     -35.18080000     -70.30570000
H      -46.28040000     -34.66360000     -70.15480000
C      -47.64520000     -33.15710000     -70.73640000
H      -48.64950000     -32.93200000     -70.42080000
H      -47.07360000     -32.32640000     -70.55030000
C      -44.86730000     -31.62620000     -71.83790000
H      -45.73590000     -30.91200000     -71.66900000
H      -44.75420000     -32.06330000     -70.82800000
C      -45.11030000     -32.59360000     -72.93970000
C      -44.31470000     -32.72440000     -74.10920000
C      -46.28560000     -33.41650000     -72.97740000
H      -43.27270000     -32.33890000     -74.32180000
C      -46.33210000     -34.22290000     -74.13900000
C      -47.48530000     -33.53290000     -72.18410000
C      -48.51350000     -34.23040000     -72.81930000
S      -44.93210000     -34.03810000     -75.12220000
S      -47.90040000     -34.92650000     -74.36260000
H      -49.52550000     -34.39120000     -72.56940000
