40
Properties=species:S:1:pos:R:3 #=T CELL(abcABC):=T 1.889726e+02=T 90.00000=T Traj:=T positionsangstrom=T Step:=T 0=T Bead:=T pbc="F F F"
C      -45.26250000     -30.25580000     -68.24860000
C      -44.38280000     -30.87470000     -69.12420000
C      -43.95010000     -32.17030000     -68.96970000
C      -44.51500000     -32.98010000     -67.94770000
C      -45.44130000     -32.35210000     -67.14850000
C      -45.79830000     -30.99370000     -67.22750000
H      -45.39780000     -29.17560000     -68.50610000
H      -43.19190000     -32.53530000     -69.67720000
H      -45.90130000     -32.95820000     -66.30870000
H      -46.45880000     -30.59000000     -66.49010000
C      -44.16660000     -34.39550000     -67.63800000
H      -45.04970000     -34.97010000     -67.34520000
H      -43.52900000     -34.44170000     -66.72590000
C      -43.79460000     -30.03180000     -70.15700000
H      -44.45160000     -29.34220000     -70.64210000
H      -43.03290000     -29.39360000     -69.73330000
S      -43.38450000     -35.32000000     -69.00540000
S      -42.86260000     -30.90860000     -71.60640000
C      -44.82530000     -35.26950000     -70.20180000
H      -45.51010000     -36.01380000     -69.78160000
H      -45.39830000     -34.40080000     -70.13270000
C      -44.48170000     -31.66220000     -72.10680000
H      -45.22640000     -30.86600000     -72.20180000
H      -45.02240000     -32.25810000     -71.32070000
C      -44.33410000     -32.43240000     -73.36990000
H      -43.99170000     -31.65960000     -74.05780000
H      -43.53040000     -33.19780000     -73.22240000
C      -44.46270000     -35.49420000     -71.66110000
H      -43.84050000     -36.42140000     -71.60030000
H      -43.77520000     -34.73020000     -71.94890000
C      -45.66840000     -35.56210000     -72.59890000
C      -46.41330000     -36.66290000     -72.75600000
C      -46.15320000     -34.40370000     -73.36750000
H      -46.15290000     -37.52130000     -72.21190000
C      -47.38040000     -34.62600000     -73.91590000
C      -45.68530000     -33.10200000     -73.78920000
C      -46.62430000     -32.38660000     -74.52440000
S      -47.98100000     -36.22650000     -73.56440000
S      -48.11770000     -33.31130000     -74.77790000
H      -46.60730000     -31.27830000     -74.73610000
