40
Properties=species:S:1:pos:R:3 #=T CELL(abcABC):=T 1.889726e+02=T 90.00000=T Traj:=T positionsangstrom=T Step:=T 0=T Bead:=T pbc="F F F"
C      -47.29820000     -33.45060000     -70.04190000
C      -46.59920000     -32.71040000     -69.07510000
C      -46.07620000     -31.46320000     -69.44480000
C      -46.28480000     -30.88540000     -70.68920000
C      -47.09570000     -31.59100000     -71.55330000
C      -47.62360000     -32.83620000     -71.26890000
H      -47.78250000     -34.35670000     -69.66300000
H      -45.42760000     -31.04330000     -68.66700000
H      -47.22150000     -31.02730000     -72.49590000
H      -48.34430000     -33.18530000     -71.97290000
C      -45.58290000     -29.59560000     -71.14950000
H      -45.47480000     -28.84520000     -70.33110000
H      -46.15590000     -29.31340000     -72.02190000
C      -46.33400000     -33.34790000     -67.78430000
H      -46.19240000     -32.52700000     -67.05590000
H      -47.21520000     -34.02280000     -67.42990000
S      -43.81250000     -29.85560000     -71.56580000
S      -44.84750000     -34.43390000     -67.85800000
C      -43.89010000     -30.90470000     -73.02230000
H      -44.78650000     -30.83460000     -73.63300000
H      -43.12990000     -30.47470000     -73.69540000
C      -43.77030000     -33.78190000     -69.20890000
H      -42.87040000     -33.26180000     -68.74730000
H      -44.34850000     -33.09800000     -69.84840000
C      -43.32640000     -34.91250000     -70.12790000
H      -42.35650000     -34.75220000     -70.58470000
H      -43.12420000     -35.83260000     -69.56930000
C      -43.42340000     -32.33330000     -72.73530000
H      -43.18130000     -32.34950000     -71.65100000
H      -42.44730000     -32.46800000     -73.06160000
C      -44.37960000     -33.40800000     -73.08140000
C      -45.16820000     -33.18610000     -74.23810000
C      -44.75350000     -34.60650000     -72.38220000
H      -44.93560000     -32.43560000     -75.01680000
C      -45.78410000     -35.30950000     -73.04910000
C      -44.23350000     -35.34130000     -71.24900000
C      -44.85690000     -36.55340000     -71.05890000
S      -46.23460000     -34.59460000     -74.54630000
S      -46.16210000     -36.82180000     -72.30160000
H      -44.66070000     -37.15650000     -70.17640000
