40
Properties=species:S:1:pos:R:3 #=T CELL(abcABC):=T 1.889726e+02=T 90.00000=T Traj:=T positionsangstrom=T Step:=T 0=T Bead:=T pbc="F F F"
C      -47.97390000     -33.18200000     -70.27720000
C      -46.88050000     -32.69720000     -69.54470000
C      -46.04130000     -31.77450000     -70.12340000
C      -46.35120000     -31.30360000     -71.43420000
C      -47.49900000     -31.81380000     -72.14280000
C      -48.31820000     -32.72900000     -71.49570000
H      -48.63490000     -33.80490000     -69.63920000
H      -45.13070000     -31.43280000     -69.48810000
H      -47.72510000     -31.48380000     -73.18170000
H      -49.15990000     -33.16810000     -72.01710000
C      -45.68290000     -30.10090000     -72.12460000
H      -46.27600000     -29.20960000     -71.83950000
H      -45.91010000     -30.19050000     -73.19720000
C      -46.62440000     -33.16490000     -68.05770000
H      -46.14810000     -32.33280000     -67.41880000
H      -47.46510000     -33.33100000     -67.50930000
S      -43.90110000     -29.69630000     -71.78580000
S      -45.49310000     -34.72800000     -68.06120000
C      -42.96370000     -30.91180000     -72.70130000
H      -43.38770000     -31.13770000     -73.68890000
H      -41.97260000     -30.42780000     -72.73350000
C      -43.77580000     -34.16640000     -68.70020000
H      -43.11160000     -34.32570000     -67.82630000
H      -43.93240000     -33.09890000     -69.03140000
C      -43.16490000     -35.03210000     -69.76970000
H      -42.29340000     -34.60280000     -70.22220000
H      -42.88600000     -35.96430000     -69.28340000
C      -42.92090000     -32.35910000     -72.11060000
H      -42.95730000     -32.38180000     -71.08240000
H      -42.01420000     -32.75690000     -72.34620000
C      -44.10860000     -33.23360000     -72.61520000
C      -44.73490000     -33.03680000     -73.78570000
C      -44.51170000     -34.50240000     -72.01490000
H      -44.53630000     -32.24030000     -74.51200000
C      -45.58970000     -35.08620000     -72.68790000
C      -44.13630000     -35.32650000     -70.86300000
C      -44.80480000     -36.52520000     -70.83790000
S      -45.88670000     -34.27310000     -74.19430000
S      -45.96630000     -36.66750000     -72.20040000
H      -44.79360000     -37.25780000     -70.05300000
