40
Properties=species:S:1:pos:R:3 #=T CELL(abcABC):=T 1.889726e+02=T 90.00000=T Traj:=T positionsangstrom=T Step:=T 0=T Bead:=T pbc="F F F"
C      -47.89010000     -33.37350000     -70.56640000
C      -47.00290000     -32.59410000     -69.79850000
C      -46.28860000     -31.57220000     -70.39580000
C      -46.44940000     -31.34000000     -71.79450000
C      -47.28120000     -32.15540000     -72.56240000
C      -48.02420000     -33.18230000     -71.94320000
H      -48.45680000     -34.24760000     -70.25560000
H      -45.66230000     -30.86590000     -69.85660000
H      -47.39690000     -31.94710000     -73.68840000
H      -48.66140000     -33.75650000     -72.54830000
C      -45.63000000     -30.18800000     -72.47500000
H      -46.14920000     -29.20400000     -72.54600000
H      -45.39280000     -30.46350000     -73.51900000
C      -46.89060000     -32.84010000     -68.33840000
H      -46.57080000     -31.97140000     -67.79820000
H      -47.78320000     -33.13290000     -67.78190000
S      -44.08990000     -29.97080000     -71.55910000
S      -45.63950000     -34.18060000     -67.94960000
C      -42.85220000     -31.00200000     -72.28220000
H      -42.92000000     -30.95290000     -73.34410000
H      -41.91260000     -30.63830000     -71.86350000
C      -44.12030000     -33.61130000     -68.78030000
H      -43.42790000     -33.14120000     -67.99320000
H      -44.36550000     -32.89570000     -69.59830000
C      -43.45440000     -34.79780000     -69.51420000
H      -42.42550000     -34.51190000     -69.81080000
H      -43.34180000     -35.59740000     -68.83210000
C      -42.92540000     -32.46740000     -71.85750000
H      -43.00640000     -32.49010000     -70.75690000
H      -41.85460000     -32.89180000     -71.87820000
C      -43.85800000     -33.41240000     -72.55890000
C      -44.23800000     -33.28170000     -73.90250000
C      -44.41970000     -34.55700000     -71.85960000
H      -43.90460000     -32.59590000     -74.65050000
C      -45.35370000     -35.18910000     -72.69970000
C      -44.29250000     -35.26780000     -70.61380000
C      -45.15910000     -36.32860000     -70.51150000
S      -45.44100000     -34.52630000     -74.32250000
S      -46.05780000     -36.63310000     -71.93200000
H      -45.14140000     -37.00750000     -69.66010000
