40
Properties=species:S:1:pos:R:3 #=T CELL(abcABC):=T 1.889726e+02=T 90.00000=T Traj:=T positionsangstrom=T Step:=T 0=T Bead:=T pbc="F F F"
C      -47.75250000     -33.65830000     -70.63960000
C      -47.11280000     -32.68470000     -69.84080000
C      -46.50930000     -31.54390000     -70.42580000
C      -46.40720000     -31.36120000     -71.77080000
C      -47.08470000     -32.28170000     -72.58900000
C      -47.71130000     -33.42430000     -72.03830000
H      -48.23660000     -34.57540000     -70.21890000
H      -45.88000000     -30.87620000     -69.75160000
H      -47.06310000     -32.22930000     -73.70180000
H      -48.14930000     -34.12500000     -72.68650000
C      -45.68640000     -30.20000000     -72.43270000
H      -46.18490000     -29.28780000     -72.25740000
H      -45.52860000     -30.39500000     -73.51390000
C      -47.09710000     -32.80810000     -68.34100000
H      -47.08600000     -31.73770000     -67.83360000
H      -47.96260000     -33.31150000     -68.05370000
S      -43.99660000     -29.86920000     -71.64780000
S      -45.78920000     -33.93150000     -67.69120000
C      -42.82810000     -31.02940000     -72.45990000
H      -43.06550000     -30.88810000     -73.53290000
H      -41.86480000     -30.54480000     -72.38200000
C      -44.19840000     -33.42660000     -68.60290000
H      -43.52570000     -33.11810000     -67.85820000
H      -44.40990000     -32.54970000     -69.14900000
C      -43.62460000     -34.54510000     -69.45140000
H      -42.69840000     -34.31890000     -69.94860000
H      -43.34900000     -35.41340000     -68.77700000
C      -42.81550000     -32.47770000     -71.92530000
H      -43.03410000     -32.44920000     -70.82080000
H      -41.84490000     -32.88680000     -71.99300000
C      -43.81320000     -33.46480000     -72.57880000
C      -44.10440000     -33.43320000     -73.94960000
C      -44.39910000     -34.63460000     -71.91000000
H      -43.76000000     -32.76030000     -74.73040000
C      -45.24270000     -35.36240000     -72.77520000
C      -44.48290000     -35.12010000     -70.55090000
C      -45.32480000     -36.20010000     -70.41240000
S      -45.25210000     -34.73450000     -74.38200000
S      -46.14330000     -36.59020000     -71.94050000
H      -45.45690000     -36.84180000     -69.54600000
