40
Properties=species:S:1:pos:R:3 #=T CELL(abcABC):=T 1.889726e+02=T 90.00000=T Traj:=T positionsangstrom=T Step:=T 0=T Bead:=T pbc="F F F"
C      -47.80530000     -33.63970000     -70.68730000
C      -47.15240000     -32.71580000     -69.81350000
C      -46.48600000     -31.59590000     -70.36210000
C      -46.31260000     -31.42090000     -71.72990000
C      -46.86740000     -32.40290000     -72.60540000
C      -47.65170000     -33.47230000     -72.05810000
H      -48.30290000     -34.46710000     -70.21180000
H      -46.12510000     -30.84660000     -69.67370000
H      -46.81260000     -32.27280000     -73.64190000
H      -48.12310000     -34.24170000     -72.72830000
C      -45.63910000     -30.18620000     -72.34190000
H      -46.29950000     -29.28280000     -72.18380000
H      -45.67810000     -30.23560000     -73.47060000
C      -47.30920000     -32.88670000     -68.32820000
H      -47.27940000     -31.87780000     -67.94400000
H      -48.19180000     -33.38440000     -67.99090000
S      -43.94960000     -29.88510000     -71.70230000
S      -45.89890000     -33.82160000     -67.54680000
C      -42.89670000     -31.09800000     -72.78000000
H      -43.32300000     -31.11360000     -73.79030000
H      -41.86530000     -30.71550000     -72.82460000
C      -44.41090000     -33.29010000     -68.48540000
H      -43.56370000     -32.98630000     -67.75860000
H      -44.80790000     -32.54500000     -69.25010000
C      -43.86640000     -34.51550000     -69.21920000
H      -42.86620000     -34.26420000     -69.52300000
H      -43.83860000     -35.32750000     -68.46270000
C      -42.75550000     -32.51150000     -72.19930000
H      -42.76260000     -32.36610000     -71.11680000
H      -41.78410000     -32.89970000     -72.54730000
C      -43.80170000     -33.45740000     -72.65380000
C      -44.05910000     -33.54350000     -73.99690000
C      -44.50180000     -34.47240000     -71.90220000
H      -43.75020000     -32.83750000     -74.79210000
C      -45.20830000     -35.29560000     -72.73360000
C      -44.56970000     -34.92320000     -70.47460000
C      -45.36440000     -36.01730000     -70.38400000
S      -45.11590000     -34.87870000     -74.45740000
S      -45.98130000     -36.62250000     -71.91140000
H      -45.69630000     -36.53520000     -69.50030000
