40
Properties=species:S:1:pos:R:3 #=T CELL(abcABC):=T 1.889726e+02=T 90.00000=T Traj:=T positionsangstrom=T Step:=T 0=T Bead:=T pbc="F F F"
C      -47.77930000     -33.57340000     -70.44110000
C      -47.24230000     -32.46030000     -69.72690000
C      -46.67300000     -31.37160000     -70.44230000
C      -46.61250000     -31.37660000     -71.83490000
C      -47.21730000     -32.39520000     -72.52290000
C      -47.81810000     -33.49340000     -71.87570000
H      -48.23350000     -34.43310000     -69.87010000
H      -46.23830000     -30.56780000     -69.84130000
H      -47.08730000     -32.39050000     -73.63070000
H      -48.13260000     -34.28210000     -72.51510000
C      -45.82200000     -30.29790000     -72.56740000
H      -46.38230000     -29.32950000     -72.47470000
H      -45.82260000     -30.57740000     -73.68690000
C      -47.16140000     -32.57560000     -68.23900000
H      -46.85650000     -31.71030000     -67.70060000
H      -48.17300000     -32.87460000     -67.86360000
S      -44.15680000     -29.92760000     -71.87590000
S      -45.96130000     -33.99060000     -67.79910000
C      -42.83310000     -31.04010000     -72.60510000
H      -42.79270000     -30.98050000     -73.71470000
H      -41.89120000     -30.46920000     -72.43170000
C      -44.33400000     -33.29080000     -68.46760000
H      -43.73570000     -32.96160000     -67.55580000
H      -44.54490000     -32.38610000     -69.14480000
C      -43.64810000     -34.44810000     -69.30370000
H      -42.62860000     -34.11970000     -69.65720000
H      -43.38250000     -35.31980000     -68.66170000
C      -42.68620000     -32.42970000     -72.06020000
H      -42.69370000     -32.39940000     -71.01430000
H      -41.72190000     -32.73630000     -72.38580000
C      -43.63410000     -33.48250000     -72.59900000
C      -43.83970000     -33.63850000     -73.97150000
C      -44.30760000     -34.52670000     -71.82110000
H      -43.21000000     -33.15340000     -74.69510000
C      -45.08880000     -35.36220000     -72.69880000
C      -44.48330000     -34.95160000     -70.49040000
C      -45.36940000     -35.99430000     -70.34690000
S      -44.80210000     -35.10110000     -74.39600000
S      -46.12640000     -36.49580000     -71.85980000
H      -45.61650000     -36.50750000     -69.44430000
