40
Properties=species:S:1:pos:R:3 #=T CELL(abcABC):=T 1.889726e+02=T 90.00000=T Traj:=T positionsangstrom=T Step:=T 0=T Bead:=T pbc="F F F"
C      -48.08210000     -33.50900000     -70.54360000
C      -47.27700000     -32.64140000     -69.77670000
C      -46.52450000     -31.67640000     -70.48160000
C      -46.49240000     -31.67130000     -71.88340000
C      -47.29460000     -32.56160000     -72.63210000
C      -48.10890000     -33.42020000     -71.92290000
H      -48.72410000     -34.23910000     -70.06990000
H      -45.98820000     -31.01540000     -69.86790000
H      -47.16580000     -32.58920000     -73.72240000
H      -48.75970000     -34.17640000     -72.45370000
C      -45.82230000     -30.57150000     -72.70390000
H      -46.53150000     -29.70170000     -72.77160000
H      -45.55630000     -30.96160000     -73.69470000
C      -47.22120000     -32.67150000     -68.27100000
H      -47.02690000     -31.63320000     -67.91480000
H      -48.07820000     -33.17740000     -67.83990000
S      -44.23280000     -29.92010000     -71.92430000
S      -45.85830000     -33.77920000     -67.62250000
C      -42.82970000     -30.91180000     -72.53430000
H      -42.80340000     -30.95910000     -73.61200000
H      -41.90980000     -30.37270000     -72.28240000
C      -44.40320000     -33.29530000     -68.60940000
H      -43.73480000     -32.73420000     -67.98660000
H      -44.57180000     -32.43450000     -69.20730000
C      -43.61110000     -34.39600000     -69.31950000
H      -42.69440000     -33.92830000     -69.70140000
H      -43.33690000     -35.15000000     -68.51550000
C      -42.67920000     -32.35910000     -71.86340000
H      -42.79720000     -32.23540000     -70.76390000
H      -41.68950000     -32.67420000     -71.98590000
C      -43.55620000     -33.48510000     -72.50590000
C      -43.82790000     -33.52870000     -73.86120000
C      -44.21420000     -34.60080000     -71.82420000
H      -43.66670000     -32.64270000     -74.45630000
C      -44.87720000     -35.44640000     -72.70710000
C      -44.38410000     -35.00620000     -70.46880000
C      -45.23950000     -36.04590000     -70.38050000
S      -44.97650000     -34.80570000     -74.35620000
S      -45.97590000     -36.60070000     -71.92460000
H      -45.46210000     -36.61240000     -69.44960000
