40
Properties=species:S:1:pos:R:3 #=T CELL(abcABC):=T 1.889726e+02=T 90.00000=T Traj:=T positionsangstrom=T Step:=T 0=T Bead:=T pbc="F F F"
C      -47.91430000     -33.30200000     -70.93700000
C      -47.27030000     -32.36100000     -70.02460000
C      -46.45940000     -31.37950000     -70.60030000
C      -46.33370000     -31.33910000     -72.00600000
C      -46.88850000     -32.28170000     -72.83410000
C      -47.74810000     -33.24430000     -72.31830000
H      -48.45700000     -34.14510000     -70.47830000
H      -45.92640000     -30.57070000     -70.04450000
H      -46.74490000     -32.26940000     -73.89910000
H      -48.17870000     -33.98050000     -73.04570000
C      -45.53700000     -30.19290000     -72.67190000
H      -46.11450000     -29.24660000     -72.56370000
H      -45.31860000     -30.38160000     -73.71710000
C      -47.35580000     -32.53550000     -68.54910000
H      -47.14960000     -31.58380000     -68.05890000
H      -48.36860000     -32.78930000     -68.29380000
S      -43.93900000     -29.79340000     -71.83280000
S      -46.30600000     -33.99160000     -67.95180000
C      -42.75480000     -31.12720000     -72.18690000
H      -42.70080000     -31.34640000     -73.26320000
H      -41.72400000     -30.77360000     -71.92590000
C      -44.64230000     -33.46200000     -68.30510000
H      -44.09800000     -33.38530000     -67.35560000
H      -44.65120000     -32.53650000     -68.87740000
C      -43.95470000     -34.60160000     -69.04500000
H      -42.95400000     -34.44720000     -69.24780000
H      -43.99860000     -35.47770000     -68.37940000
C      -43.02230000     -32.44280000     -71.45720000
H      -43.84280000     -32.21740000     -70.71080000
H      -42.14360000     -32.71950000     -70.88440000
C      -43.59960000     -33.58480000     -72.29090000
C      -43.64650000     -33.66540000     -73.66690000
C      -44.38300000     -34.61740000     -71.68460000
H      -43.28400000     -32.93090000     -74.34770000
C      -45.09150000     -35.38830000     -72.62540000
C      -44.62030000     -35.09770000     -70.33600000
C      -45.42850000     -36.21200000     -70.34340000
S      -44.75740000     -34.91130000     -74.28310000
S      -45.93720000     -36.76000000     -71.96860000
H      -45.70000000     -36.76070000     -69.41160000
