40
Properties=species:S:1:pos:R:3 #=T CELL(abcABC):=T 1.889726e+02=T 90.00000=T Traj:=T positionsangstrom=T Step:=T 0=T Bead:=T pbc="F F F"
C      -47.72560000     -33.32830000     -71.06210000
C      -47.39960000     -32.26950000     -70.28610000
C      -46.62250000     -31.20120000     -70.79390000
C      -46.28500000     -31.12860000     -72.12590000
C      -46.69570000     -32.15730000     -72.95910000
C      -47.41970000     -33.30790000     -72.40540000
H      -48.21730000     -34.15710000     -70.53620000
H      -46.23810000     -30.45260000     -70.10400000
H      -46.37010000     -32.13070000     -73.98200000
H      -47.80660000     -34.06420000     -73.10890000
C      -45.39360000     -30.09570000     -72.63160000
H      -45.86790000     -29.12550000     -72.62310000
H      -45.14790000     -30.32360000     -73.68160000
C      -47.66860000     -32.40650000     -68.79350000
H      -47.49450000     -31.46940000     -68.34880000
H      -48.73350000     -32.61150000     -68.69630000
S      -43.75360000     -30.03100000     -71.61510000
S      -46.56830000     -33.72880000     -68.03330000
C      -42.68560000     -31.23890000     -72.44140000
H      -42.92560000     -31.37200000     -73.52950000
H      -41.67000000     -30.73210000     -72.36640000
C      -44.93650000     -33.17820000     -68.63730000
H      -44.52540000     -32.51410000     -67.96760000
H      -45.07350000     -32.56710000     -69.59600000
C      -44.03740000     -34.34970000     -68.95290000
H      -42.99860000     -34.07610000     -69.07960000
H      -44.05420000     -35.03800000     -68.13040000
C      -42.75470000     -32.65340000     -71.74680000
H      -42.96240000     -32.43070000     -70.70890000
H      -41.68600000     -33.02220000     -71.69850000
C      -43.62510000     -33.70430000     -72.35740000
C      -43.74780000     -33.81960000     -73.74390000
C      -44.32020000     -34.70100000     -71.57590000
H      -43.54480000     -33.12550000     -74.52280000
C      -45.08370000     -35.51870000     -72.45960000
C      -44.50780000     -35.09280000     -70.19960000
C      -45.32530000     -36.20890000     -70.03520000
S      -44.96350000     -35.05070000     -74.19000000
S      -45.82650000     -36.87570000     -71.59980000
H      -45.51270000     -36.68970000     -69.05920000
