40
Properties=species:S:1:pos:R:3 #=T CELL(abcABC):=T 1.889726e+02=T 90.00000=T Traj:=T positionsangstrom=T Step:=T 0=T Bead:=T pbc="F F F"
C      -47.97730000     -33.19890000     -71.20500000
C      -47.43280000     -32.24140000     -70.31630000
C      -46.61470000     -31.23490000     -70.78540000
C      -46.23580000     -31.16100000     -72.15050000
C      -46.74940000     -32.17070000     -72.99690000
C      -47.71110000     -33.19200000     -72.57300000
H      -48.60570000     -33.92630000     -70.75910000
H      -46.25100000     -30.45240000     -70.10070000
H      -46.41170000     -32.09540000     -74.05800000
H      -48.06310000     -33.91150000     -73.27640000
C      -45.25670000     -30.10000000     -72.62420000
H      -45.65230000     -29.13450000     -72.32030000
H      -45.06250000     -30.17300000     -73.71610000
C      -47.73530000     -32.36830000     -68.88570000
H      -47.50780000     -31.51150000     -68.22260000
H      -48.74600000     -32.68240000     -68.62750000
S      -43.69550000     -30.13670000     -71.60470000
S      -46.62990000     -33.69900000     -68.08020000
C      -42.60460000     -31.27490000     -72.55770000
H      -42.82470000     -31.10610000     -73.59040000
H      -41.62830000     -30.98160000     -72.41540000
C      -44.83600000     -33.16740000     -68.37650000
H      -44.45540000     -32.80260000     -67.45100000
H      -44.83810000     -32.36860000     -69.14440000
C      -43.95940000     -34.28250000     -68.89630000
H      -43.05860000     -33.73340000     -69.17990000
H      -43.62060000     -34.93370000     -68.04330000
C      -42.59160000     -32.69350000     -71.91040000
H      -42.74840000     -32.56440000     -70.83700000
H      -41.62440000     -33.14030000     -72.04100000
C      -43.66830000     -33.63690000     -72.37340000
C      -43.94590000     -33.74840000     -73.73820000
C      -44.30890000     -34.68820000     -71.57480000
H      -43.54210000     -33.29600000     -74.56650000
C      -45.07510000     -35.55680000     -72.39130000
C      -44.51240000     -35.05650000     -70.08050000
C      -45.26020000     -36.21810000     -70.01890000
S      -44.89400000     -35.13230000     -74.11700000
S      -45.81890000     -36.86690000     -71.55070000
H      -45.66150000     -36.76890000     -69.16660000
