40
Properties=species:S:1:pos:R:3 #=T CELL(abcABC):=T 1.889726e+02=T 90.00000=T Traj:=T positionsangstrom=T Step:=T 0=T Bead:=T pbc="F F F"
C      -48.07280000     -33.17480000     -71.34370000
C      -47.36050000     -32.41370000     -70.40650000
C      -46.52130000     -31.43110000     -70.83380000
C      -46.13740000     -31.30560000     -72.19660000
C      -46.85600000     -32.09650000     -73.15030000
C      -47.79540000     -32.98800000     -72.68550000
H      -48.88560000     -33.79230000     -71.03570000
H      -46.05160000     -30.67670000     -70.18880000
H      -46.64550000     -31.84040000     -74.25320000
H      -48.45500000     -33.54750000     -73.41080000
C      -45.16880000     -30.23800000     -72.68150000
H      -45.61930000     -29.19600000     -72.70900000
H      -44.87090000     -30.42410000     -73.68090000
C      -47.68990000     -32.52680000     -68.98780000
H      -47.54600000     -31.61750000     -68.36590000
H      -48.71760000     -32.84380000     -68.94060000
S      -43.66300000     -29.98430000     -71.58960000
S      -46.67470000     -33.78890000     -68.05690000
C      -42.54820000     -31.30030000     -72.34090000
H      -42.70550000     -31.20990000     -73.46510000
H      -41.50320000     -31.01280000     -72.04720000
C      -44.96900000     -33.06180000     -68.52420000
H      -44.53930000     -32.40620000     -67.64830000
H      -45.10790000     -32.40470000     -69.32760000
C      -43.92880000     -34.11100000     -68.90880000
H      -43.04900000     -33.60160000     -69.22710000
H      -43.74590000     -34.80480000     -68.08540000
C      -42.67990000     -32.70730000     -71.79350000
H      -42.90960000     -32.55550000     -70.74380000
H      -41.63870000     -33.13700000     -71.88340000
C      -43.61590000     -33.66180000     -72.41090000
C      -43.87240000     -33.84070000     -73.74700000
C      -44.30290000     -34.64070000     -71.54210000
H      -43.50650000     -33.30240000     -74.60680000
C      -45.03480000     -35.50260000     -72.29570000
C      -44.44730000     -34.99950000     -70.04960000
C      -45.22150000     -36.14910000     -69.91450000
S      -44.92270000     -35.22190000     -74.03400000
S      -45.84490000     -36.79880000     -71.50170000
H      -45.68830000     -36.62320000     -69.05800000
