40
Properties=species:S:1:pos:R:3 #=T CELL(abcABC):=T 1.889726e+02=T 90.00000=T Traj:=T positionsangstrom=T Step:=T 0=T Bead:=T pbc="F F F"
C      -48.14480000     -33.15680000     -71.54060000
C      -47.45510000     -32.44480000     -70.53240000
C      -46.51490000     -31.40680000     -70.93400000
C      -46.20230000     -31.27260000     -72.30430000
C      -46.81150000     -32.11970000     -73.27090000
C      -47.80160000     -33.04500000     -72.89350000
H      -48.87820000     -33.92280000     -71.24020000
H      -46.05420000     -30.74780000     -70.20600000
H      -46.43590000     -32.18460000     -74.30900000
H      -48.23780000     -33.65850000     -73.72840000
C      -45.16510000     -30.24680000     -72.78980000
H      -45.66680000     -29.29820000     -72.84690000
H      -44.78040000     -30.54040000     -73.80160000
C      -47.80100000     -32.60030000     -69.11240000
H      -48.06570000     -31.58740000     -68.69960000
H      -48.74080000     -33.17980000     -69.20350000
S      -43.71490000     -30.04700000     -71.75970000
S      -46.63900000     -33.64310000     -68.12980000
C      -42.49810000     -31.36480000     -72.25580000
H      -42.65660000     -31.52810000     -73.30090000
H      -41.50590000     -30.92570000     -72.17760000
C      -44.89340000     -33.10060000     -68.33210000
H      -44.49200000     -32.53010000     -67.45630000
H      -44.95150000     -32.46040000     -69.13420000
C      -43.93920000     -34.30750000     -68.81840000
H      -42.87500000     -33.93850000     -68.96590000
H      -43.83450000     -35.07760000     -68.05830000
C      -42.65960000     -32.71320000     -71.58420000
H      -43.00580000     -32.62060000     -70.59250000
H      -41.72120000     -33.23720000     -71.49690000
C      -43.57200000     -33.69620000     -72.23940000
C      -43.72490000     -33.79600000     -73.58330000
C      -44.34480000     -34.66210000     -71.42200000
H      -43.42450000     -33.04690000     -74.37420000
C      -45.00970000     -35.52250000     -72.24850000
C      -44.51770000     -35.00150000     -69.99920000
C      -45.37720000     -36.06920000     -69.83400000
S      -44.77530000     -35.13310000     -73.95910000
S      -45.90660000     -36.75940000     -71.38030000
H      -45.56360000     -36.73580000     -69.00020000
