40
Properties=species:S:1:pos:R:3 #=T CELL(abcABC):=T 1.889726e+02=T 90.00000=T Traj:=T positionsangstrom=T Step:=T 0=T Bead:=T pbc="F F F"
C      -47.99830000     -33.29920000     -71.53760000
C      -47.37950000     -32.34790000     -70.68820000
C      -46.52870000     -31.36280000     -71.20380000
C      -46.11360000     -31.51940000     -72.54630000
C      -46.69930000     -32.50320000     -73.41890000
C      -47.61310000     -33.37950000     -72.92860000
H      -48.58590000     -34.05580000     -71.08670000
H      -46.20220000     -30.49120000     -70.54350000
H      -46.38930000     -32.52750000     -74.45240000
H      -47.97380000     -34.16000000     -73.57990000
C      -45.06820000     -30.59090000     -73.08460000
H      -45.56220000     -29.61330000     -73.40760000
H      -44.53490000     -30.99440000     -73.89210000
C      -47.78840000     -32.26410000     -69.17210000
H      -47.75220000     -31.22790000     -68.75500000
H      -48.76550000     -32.70360000     -68.91730000
S      -43.79660000     -30.04720000     -71.81950000
S      -46.69820000     -33.34370000     -68.09340000
C      -42.45220000     -31.32340000     -71.96680000
H      -42.18660000     -31.41110000     -72.99890000
H      -41.64360000     -30.94680000     -71.35140000
C      -44.82500000     -33.05470000     -68.40400000
H      -44.47180000     -32.56170000     -67.50220000
H      -44.70580000     -32.22910000     -69.15510000
C      -44.09780000     -34.33060000     -68.70170000
H      -43.09560000     -34.02580000     -68.92860000
H      -44.10920000     -35.01490000     -67.83530000
C      -42.70670000     -32.67860000     -71.28160000
H      -43.04190000     -32.41380000     -70.29690000
H      -41.79090000     -33.10960000     -71.16830000
C      -43.62130000     -33.71600000     -71.99320000
C      -43.60640000     -33.82980000     -73.40000000
C      -44.40960000     -34.69060000     -71.31670000
H      -42.86720000     -33.29490000     -73.98080000
C      -45.04690000     -35.53970000     -72.28520000
C      -44.67070000     -35.04070000     -69.96390000
C      -45.47510000     -36.15580000     -69.88760000
S      -44.76580000     -35.00830000     -73.90410000
S      -45.93990000     -36.77000000     -71.43510000
H      -45.92550000     -36.47920000     -68.98290000
