40
Properties=species:S:1:pos:R:3 #=T CELL(abcABC):=T 1.889726e+02=T 90.00000=T Traj:=T positionsangstrom=T Step:=T 0=T Bead:=T pbc="F F F"
C      -48.04260000     -33.09310000     -71.32920000
C      -47.34650000     -32.12470000     -70.52500000
C      -46.29370000     -31.40170000     -71.15320000
C      -46.09800000     -31.55700000     -72.51650000
C      -46.72730000     -32.52620000     -73.25030000
C      -47.68520000     -33.37290000     -72.68050000
H      -48.79660000     -33.73200000     -70.95100000
H      -45.74620000     -30.63520000     -70.56850000
H      -46.39220000     -32.59550000     -74.34040000
H      -48.06380000     -34.27730000     -73.16510000
C      -45.07450000     -30.70220000     -73.23150000
H      -45.50450000     -29.73110000     -73.56960000
H      -44.67130000     -31.16100000     -74.06490000
C      -47.69890000     -32.14150000     -69.04480000
H      -47.40290000     -31.36280000     -68.37400000
H      -48.69550000     -32.31520000     -68.97690000
S      -43.65880000     -29.96440000     -72.30750000
S      -47.08130000     -33.61310000     -68.16960000
C      -42.41970000     -31.24810000     -71.96350000
H      -42.10790000     -31.65420000     -72.94860000
H      -41.58890000     -30.68710000     -71.49440000
C      -45.24040000     -33.33800000     -68.07500000
H      -45.02340000     -33.21970000     -67.01110000
H      -45.07290000     -32.37630000     -68.58140000
C      -44.40040000     -34.46640000     -68.63230000
H      -43.40220000     -34.06180000     -68.80070000
H      -44.23540000     -35.30050000     -67.93380000
C      -42.78190000     -32.43670000     -71.14820000
H      -43.48550000     -32.18590000     -70.28640000
H      -41.84440000     -32.87450000     -70.69270000
C      -43.43160000     -33.59170000     -71.88870000
C      -43.38790000     -33.70280000     -73.26610000
C      -44.37400000     -34.57750000     -71.29080000
H      -42.85000000     -33.13480000     -74.02770000
C      -44.92030000     -35.45850000     -72.23610000
C      -44.89180000     -35.01060000     -70.00530000
C      -45.71000000     -36.07720000     -69.98380000
S      -44.26900000     -35.15760000     -73.82630000
S      -45.98900000     -36.71940000     -71.59540000
H      -46.11120000     -36.41620000     -69.06350000
