40
Properties=species:S:1:pos:R:3 #=T CELL(abcABC):=T 1.889726e+02=T 90.00000=T Traj:=T positionsangstrom=T Step:=T 0=T Bead:=T pbc="F F F"
C      -48.48130000     -32.80130000     -68.66650000
C      -47.54210000     -31.82880000     -69.13240000
C      -46.26890000     -31.78400000     -68.66360000
C      -45.80050000     -32.91950000     -67.83330000
C      -46.68110000     -33.90460000     -67.42550000
C      -48.05850000     -33.69470000     -67.72550000
H      -49.55660000     -32.71040000     -68.94390000
H      -45.55820000     -30.96470000     -68.97730000
H      -46.32420000     -34.75070000     -66.74860000
H      -48.78680000     -34.36820000     -67.40880000
C      -44.38490000     -33.05160000     -67.37270000
H      -44.15720000     -34.12220000     -67.18830000
H      -44.26680000     -32.48370000     -66.42860000
C      -48.06040000     -30.73630000     -69.98510000
H      -49.05720000     -30.33850000     -69.70940000
H      -47.33530000     -29.87260000     -69.73840000
S      -43.15890000     -32.28100000     -68.51770000
S      -48.18030000     -30.94380000     -71.88990000
C      -42.71950000     -33.44240000     -69.79920000
H      -41.70050000     -33.15950000     -70.12110000
H      -42.88360000     -34.48070000     -69.47900000
C      -47.13090000     -32.55100000     -72.25940000
H      -47.82240000     -33.27640000     -72.60360000
H      -46.72040000     -32.92320000     -71.28770000
C      -46.07560000     -32.19840000     -73.27500000
H      -46.61040000     -31.68320000     -74.09500000
H      -45.21480000     -31.62560000     -72.87620000
C      -43.65580000     -33.16540000     -71.04580000
H      -43.33500000     -32.12490000     -71.48000000
H      -44.69680000     -32.99550000     -70.71660000
C      -43.52150000     -34.14300000     -72.14200000
C      -42.54770000     -35.12210000     -72.10980000
C      -44.44720000     -34.26570000     -73.24080000
H      -41.79660000     -35.27480000     -71.35190000
C      -44.07820000     -35.32440000     -74.05740000
C      -45.44550000     -33.42560000     -73.86760000
C      -45.78670000     -33.88460000     -75.11180000
S      -42.73740000     -36.22070000     -73.43740000
S      -45.00500000     -35.38950000     -75.55300000
H      -46.55260000     -33.39200000     -75.74940000
