40
Properties=species:S:1:pos:R:3 #=T CELL(abcABC):=T 1.889726e+02=T 90.00000=T Traj:=T positionsangstrom=T Step:=T 0=T Bead:=T pbc="F F F"
C      -48.18650000     -33.70130000     -68.59950000
C      -47.56350000     -32.52150000     -68.88320000
C      -46.24130000     -32.36350000     -68.42810000
C      -45.61890000     -33.30930000     -67.61070000
C      -46.38300000     -34.49040000     -67.32940000
C      -47.63130000     -34.71340000     -67.83960000
H      -49.14990000     -34.01260000     -68.97630000
H      -45.67990000     -31.50500000     -68.68250000
H      -45.92230000     -35.21220000     -66.61790000
H      -48.05880000     -35.66970000     -67.53310000
C      -44.21840000     -33.21260000     -67.13740000
H      -43.86740000     -34.17950000     -66.75160000
H      -44.04180000     -32.54120000     -66.33510000
C      -48.16900000     -31.43800000     -69.75050000
H      -48.93670000     -30.87420000     -69.21240000
H      -47.36480000     -30.72370000     -69.89170000
S      -43.09150000     -32.58930000     -68.51910000
S      -48.87280000     -31.93680000     -71.37300000
C      -42.94800000     -33.80200000     -69.77550000
H      -42.08290000     -33.52650000     -70.31440000
H      -42.81120000     -34.80810000     -69.34190000
C      -47.44840000     -32.76570000     -72.21020000
H      -47.85050000     -33.38670000     -73.00630000
H      -46.99330000     -33.48880000     -71.45740000
C      -46.31770000     -31.89560000     -72.84460000
H      -46.70550000     -31.10140000     -73.47060000
H      -45.81220000     -31.43090000     -71.99630000
C      -44.17720000     -33.85460000     -70.74740000
H      -44.64990000     -32.93490000     -70.87160000
H      -44.98780000     -34.40360000     -70.41480000
C      -43.81460000     -34.23440000     -72.13000000
C      -42.88120000     -35.21920000     -72.43710000
C      -44.43640000     -33.70330000     -73.32690000
H      -42.28450000     -35.74110000     -71.71110000
C      -43.76970000     -34.18560000     -74.45890000
C      -45.39090000     -32.73140000     -73.71690000
C      -45.54810000     -32.65100000     -75.06890000
S      -42.57660000     -35.44130000     -74.17590000
S      -44.48380000     -33.69270000     -75.94860000
H      -46.29910000     -32.00850000     -75.54650000
