40
Properties=species:S:1:pos:R:3 #=T CELL(abcABC):=T 1.889726e+02=T 90.00000=T Traj:=T positionsangstrom=T Step:=T 0=T Bead:=T pbc="F F F"
C      -45.45080000     -34.40320000     -72.80200000
C      -44.06880000     -34.57730000     -73.01430000
C      -43.38480000     -35.49510000     -72.13000000
C      -44.12760000     -36.23110000     -71.22190000
C      -45.50790000     -36.21330000     -71.21640000
C      -46.18740000     -35.30900000     -72.01970000
H      -45.93890000     -33.66660000     -73.37960000
H      -42.37340000     -35.60350000     -72.24330000
H      -46.02380000     -36.71180000     -70.40020000
H      -47.27770000     -35.26810000     -71.97470000
C      -43.31780000     -36.96440000     -70.06490000
H      -42.32650000     -37.20590000     -70.50600000
H      -43.74730000     -37.88010000     -69.71500000
C      -43.28800000     -33.76880000     -73.96870000
H      -42.32540000     -33.56220000     -73.47830000
H      -42.88190000     -34.40660000     -74.86470000
S      -42.76370000     -35.80240000     -68.72790000
S      -44.20650000     -32.21930000     -74.63810000
C      -44.25210000     -34.65820000     -68.46100000
H      -45.20640000     -35.16740000     -68.47450000
H      -44.11730000     -34.33390000     -67.46430000
C      -43.85880000     -30.86530000     -73.46340000
H      -44.34020000     -29.90350000     -73.66930000
H      -42.73780000     -30.60450000     -73.61340000
C      -44.10010000     -31.26350000     -72.00260000
H      -43.67060000     -32.29430000     -71.82140000
H      -43.57160000     -30.51740000     -71.36240000
C      -44.37530000     -33.54280000     -69.50330000
H      -44.02540000     -33.95940000     -70.41770000
H      -43.64730000     -32.73880000     -69.32900000
C      -45.78750000     -32.98060000     -69.60260000
C      -46.84360000     -33.27050000     -68.82450000
C      -46.23750000     -32.11000000     -70.76800000
H      -46.82880000     -34.04600000     -68.03730000
C      -47.59860000     -31.91370000     -70.71800000
C      -45.62970000     -31.27830000     -71.81070000
C      -46.54840000     -30.54790000     -72.49360000
S      -48.46870000     -32.77790000     -69.47810000
S      -48.22190000     -30.81890000     -72.07000000
H      -46.26490000     -29.81360000     -73.20410000
