40
Properties=species:S:1:pos:R:3 #=T CELL(abcABC):=T 1.889726e+02=T 90.00000=T Traj:=T positionsangstrom=T Step:=T 0=T Bead:=T pbc="F F F"
C      -47.75320000     -32.61590000     -71.10880000
C      -46.94130000     -31.67340000     -70.52770000
C      -45.85970000     -31.09690000     -71.23930000
C      -45.74510000     -31.36910000     -72.57640000
C      -46.65210000     -32.19880000     -73.18820000
C      -47.56070000     -32.92990000     -72.42720000
H      -48.56750000     -33.16110000     -70.57940000
H      -45.17730000     -30.35350000     -70.77540000
H      -46.67810000     -32.30460000     -74.24740000
H      -48.19540000     -33.69170000     -72.94570000
C      -44.67880000     -30.68750000     -73.41890000
H      -45.04510000     -29.65920000     -73.70000000
H      -44.48970000     -31.18570000     -74.32530000
C      -47.05630000     -31.50690000     -68.99010000
H      -46.82110000     -30.51670000     -68.68950000
H      -48.06600000     -31.62460000     -68.68480000
S      -43.13760000     -30.59240000     -72.58320000
S      -46.26110000     -32.81550000     -68.00650000
C      -42.51700000     -32.26700000     -73.11480000
H      -42.99680000     -32.60010000     -74.02250000
H      -41.43820000     -32.20040000     -73.40820000
C      -44.42750000     -32.83790000     -68.42740000
H      -43.85970000     -32.42160000     -67.58460000
H      -44.45320000     -32.19630000     -69.27980000
C      -43.83600000     -34.19080000     -68.80270000
H      -42.87780000     -33.96310000     -69.12720000
H      -43.66690000     -34.90190000     -67.96310000
C      -42.70800000     -33.29770000     -72.05550000
H      -43.03240000     -32.89740000     -71.11390000
H      -41.81290000     -33.95800000     -71.99390000
C      -43.91780000     -34.16830000     -72.32260000
C      -44.31070000     -34.55430000     -73.57950000
C      -44.70700000     -34.86210000     -71.32800000
H      -43.89770000     -34.14040000     -74.46010000
C      -45.66420000     -35.67820000     -71.88510000
C      -44.70800000     -34.88030000     -69.87050000
C      -45.60350000     -35.87930000     -69.45550000
S      -45.81470000     -35.47760000     -73.60200000
S      -46.61410000     -36.61820000     -70.71940000
H      -45.90360000     -35.95730000     -68.37960000
