40
Properties=species:S:1:pos:R:3 #=T CELL(abcABC):=T 1.889726e+02=T 90.00000=T Traj:=T positionsangstrom=T Step:=T 0=T Bead:=T pbc="F F F"
C      -48.23970000     -34.15900000     -69.33840000
C      -47.63430000     -32.85050000     -69.20950000
C      -46.38640000     -32.75190000     -68.55440000
C      -45.84680000     -33.85110000     -67.86270000
C      -46.44310000     -35.03980000     -67.98770000
C      -47.61250000     -35.23270000     -68.75530000
H      -49.17210000     -34.41240000     -69.92300000
H      -45.81860000     -31.80520000     -68.56580000
H      -46.07640000     -35.94560000     -67.56360000
H      -48.04470000     -36.20900000     -68.84080000
C      -44.64490000     -33.73780000     -67.01940000
H      -44.23150000     -34.72940000     -66.90450000
H      -44.75710000     -33.11310000     -66.12180000
C      -48.46810000     -31.70310000     -69.80660000
H      -49.38740000     -31.69640000     -69.19210000
H      -48.01440000     -30.77670000     -69.55320000
S      -43.19020000     -32.92100000     -67.86350000
S      -48.89410000     -31.97710000     -71.54720000
C      -43.23650000     -33.76530000     -69.45320000
H      -42.19910000     -33.69200000     -69.80500000
H      -43.22810000     -34.83240000     -69.24570000
C      -47.33180000     -32.62210000     -72.31340000
H      -47.65730000     -33.24080000     -73.08920000
H      -46.84640000     -33.37120000     -71.71950000
C      -46.25820000     -31.67110000     -72.74420000
H      -46.64080000     -30.74120000     -73.19610000
H      -45.75320000     -31.21840000     -71.79890000
C      -44.18460000     -33.45890000     -70.59440000
H      -44.34660000     -32.38160000     -70.72930000
H      -45.14940000     -33.98330000     -70.46560000
C      -43.71570000     -33.93480000     -72.03660000
C      -42.89550000     -35.01200000     -72.30730000
C      -44.36360000     -33.35890000     -73.20510000
H      -42.32410000     -35.50470000     -71.51890000
C      -43.70690000     -33.97420000     -74.35150000
C      -45.31020000     -32.33980000     -73.65870000
C      -45.22760000     -32.12700000     -75.03430000
S      -42.45030000     -35.12270000     -74.00020000
S      -44.14390000     -33.29530000     -75.82750000
H      -45.78410000     -31.33450000     -75.55820000
