40
Properties=species:S:1:pos:R:3 #=T CELL(abcABC):=T 1.889726e+02=T 90.00000=T Traj:=T positionsangstrom=T Step:=T 0=T Bead:=T pbc="F F F"
C      -48.29350000     -34.20920000     -69.37910000
C      -47.79140000     -32.89280000     -69.12200000
C      -46.72110000     -32.78620000     -68.24560000
C      -46.02770000     -33.88260000     -67.77710000
C      -46.52880000     -35.13980000     -68.04800000
C      -47.62930000     -35.28870000     -68.83900000
H      -49.15180000     -34.39560000     -70.05370000
H      -46.24820000     -31.84160000     -67.93880000
H      -46.02140000     -36.03820000     -67.71160000
H      -47.91940000     -36.25510000     -69.11300000
C      -44.67810000     -33.70450000     -67.02150000
H      -44.56030000     -34.67100000     -66.47220000
H      -44.83890000     -32.92920000     -66.21530000
C      -48.30900000     -31.60120000     -69.84480000
H      -49.17400000     -31.25230000     -69.23800000
H      -47.54370000     -30.81720000     -69.88310000
S      -43.28730000     -33.04880000     -67.95480000
S      -48.76720000     -31.81190000     -71.57590000
C      -43.06560000     -33.93970000     -69.59080000
H      -42.01630000     -33.79310000     -69.87070000
H      -43.34700000     -35.01250000     -69.49470000
C      -47.39520000     -32.77800000     -72.24880000
H      -47.90320000     -33.31060000     -73.13310000
H      -46.90450000     -33.47710000     -71.55710000
C      -46.39580000     -31.80300000     -72.84100000
H      -46.88900000     -31.08330000     -73.46620000
H      -45.98800000     -31.35170000     -72.00620000
C      -43.96190000     -33.26060000     -70.61120000
H      -43.85240000     -32.17690000     -70.53450000
H      -45.00900000     -33.48220000     -70.42620000
C      -43.56550000     -33.77160000     -72.01420000
C      -42.64160000     -34.76440000     -72.15490000
C      -44.25380000     -33.34780000     -73.22560000
H      -42.13980000     -35.34230000     -71.33210000
C      -43.59450000     -33.85640000     -74.33370000
C      -45.35070000     -32.47500000     -73.67740000
C      -45.46090000     -32.36770000     -75.04340000
S      -42.39350000     -35.09640000     -73.94510000
S      -44.16170000     -33.25370000     -75.83590000
H      -46.22460000     -31.77990000     -75.57090000
