40
Properties=species:S:1:pos:R:3 #=T CELL(abcABC):=T 1.889726e+02=T 90.00000=T Traj:=T positionsangstrom=T Step:=T 0=T Bead:=T pbc="F F F"
C      -48.52580000     -34.08800000     -69.39230000
C      -47.72600000     -32.95860000     -69.28900000
C      -46.48380000     -33.12980000     -68.66360000
C      -46.14380000     -34.31350000     -68.00100000
C      -47.00910000     -35.44600000     -68.09640000
C      -48.19880000     -35.32530000     -68.88610000
H      -49.48870000     -33.89430000     -69.94050000
H      -45.76650000     -32.29850000     -68.60700000
H      -46.79610000     -36.37070000     -67.51420000
H      -48.86850000     -36.18940000     -69.04730000
C      -44.85790000     -34.45950000     -67.29530000
H      -44.48050000     -35.48870000     -67.34560000
H      -45.08230000     -34.30520000     -66.21510000
C      -48.23560000     -31.61630000     -69.75580000
H      -49.16010000     -31.24430000     -69.18980000
H      -47.44920000     -30.84120000     -69.79820000
S      -43.42030000     -33.23230000     -67.64970000
S      -48.78860000     -31.59710000     -71.52720000
C      -43.04290000     -33.71470000     -69.44830000
H      -41.96580000     -33.24990000     -69.61140000
H      -43.01220000     -34.79710000     -69.58080000
C      -47.40560000     -32.35250000     -72.42890000
H      -47.88300000     -32.46880000     -73.40270000
H      -47.07870000     -33.26800000     -71.83480000
C      -46.12280000     -31.61610000     -72.60650000
H      -46.20690000     -30.67840000     -73.01720000
H      -45.57610000     -31.45000000     -71.71550000
C      -43.85660000     -33.12630000     -70.61470000
H      -43.77150000     -32.02560000     -70.56990000
H      -44.91070000     -33.46380000     -70.55990000
C      -43.34790000     -33.47190000     -72.00700000
C      -42.27270000     -34.35310000     -72.29650000
C      -44.04950000     -33.19120000     -73.20350000
H      -41.52990000     -34.86780000     -71.65770000
C      -43.45990000     -33.81920000     -74.35190000
C      -45.25590000     -32.50540000     -73.56810000
C      -45.64500000     -32.66230000     -74.86140000
S      -42.03150000     -34.74720000     -74.00810000
S      -44.38660000     -33.52560000     -75.81550000
H      -46.45220000     -32.22270000     -75.39760000
