40
Properties=species:S:1:pos:R:3 #=T CELL(abcABC):=T 1.889726e+02=T 90.00000=T Traj:=T positionsangstrom=T Step:=T 0=T Bead:=T pbc="F F F"
C      -43.28750000     -35.80340000     -69.28430000
C      -44.43620000     -35.39000000     -68.54550000
C      -45.70640000     -35.79430000     -68.90460000
C      -45.90240000     -36.67940000     -70.01000000
C      -44.75980000     -37.22280000     -70.63720000
C      -43.47670000     -36.72010000     -70.34000000
H      -42.30680000     -35.36450000     -68.98460000
H      -46.54850000     -35.44480000     -68.32310000
H      -44.86340000     -37.86840000     -71.48630000
H      -42.63470000     -36.98570000     -70.95900000
C      -47.27970000     -37.05100000     -70.52630000
H      -48.06500000     -36.63660000     -69.91640000
H      -47.42070000     -38.08950000     -70.61870000
C      -44.17400000     -34.47260000     -67.33240000
H      -44.78570000     -34.68870000     -66.45320000
H      -43.09450000     -34.58190000     -66.97410000
S      -47.59630000     -36.31190000     -72.25070000
S      -44.42850000     -32.64960000     -67.57880000
C      -47.05870000     -34.50580000     -72.19740000
H      -47.95460000     -33.93760000     -72.59940000
H      -46.93470000     -34.17210000     -71.12570000
C      -43.80980000     -32.22860000     -69.17530000
H      -42.86420000     -32.60190000     -69.47190000
H      -43.68510000     -31.14480000     -69.11770000
C      -44.89630000     -32.33930000     -70.27010000
H      -44.71770000     -33.41560000     -70.59340000
H      -45.90900000     -32.36290000     -69.89060000
C      -45.71840000     -34.35150000     -73.06000000
H      -45.77900000     -35.03660000     -73.94010000
H      -44.82090000     -34.56260000     -72.47760000
C      -45.58030000     -32.94200000     -73.61320000
C      -45.78090000     -32.56580000     -74.94460000
C      -45.25720000     -31.74250000     -72.77680000
H      -46.05730000     -33.32930000     -75.78420000
C      -45.30020000     -30.58770000     -73.52610000
C      -44.92970000     -31.36010000     -71.37060000
C      -44.84230000     -29.99270000     -71.16870000
S      -45.60440000     -30.81140000     -75.25220000
S      -44.92570000     -29.08370000     -72.70280000
H      -44.59460000     -29.57590000     -70.21640000
