40
Properties=species:S:1:pos:R:3 #=T CELL(abcABC):=T 1.889726e+02=T 90.00000=T Traj:=T positionsangstrom=T Step:=T 0=T Bead:=T pbc="F F F"
C      -48.72190000     -33.93810000     -69.12590000
C      -47.81580000     -32.86560000     -69.12650000
C      -46.57870000     -33.11340000     -68.54430000
C      -46.12400000     -34.38390000     -68.24200000
C      -47.00480000     -35.53590000     -68.49210000
C      -48.28840000     -35.27340000     -68.87860000
H      -49.74620000     -33.75490000     -69.43750000
H      -45.84680000     -32.31330000     -68.42820000
H      -46.48110000     -36.45740000     -68.25910000
H      -48.98980000     -36.12260000     -68.91560000
C      -44.79870000     -34.58780000     -67.59220000
H      -44.37990000     -35.54710000     -67.95920000
H      -44.97620000     -34.76040000     -66.51850000
C      -48.10380000     -31.44770000     -69.69430000
H      -48.55620000     -30.85520000     -68.90070000
H      -47.14960000     -30.98160000     -69.88200000
S      -43.52650000     -33.33140000     -67.83220000
S      -48.85060000     -31.60450000     -71.47040000
C      -42.81240000     -33.75110000     -69.48150000
H      -41.77380000     -33.53820000     -69.43110000
H      -42.96380000     -34.82860000     -69.59560000
C      -47.59180000     -32.53880000     -72.46410000
H      -47.99020000     -32.72110000     -73.45340000
H      -47.42710000     -33.56700000     -72.12030000
C      -46.28990000     -31.75700000     -72.60700000
H      -46.60720000     -30.76490000     -72.94570000
H      -45.94360000     -31.63370000     -71.50400000
C      -43.68730000     -33.07370000     -70.55760000
H      -43.65430000     -31.97000000     -70.50090000
H      -44.71860000     -33.20120000     -70.34770000
C      -43.32570000     -33.45320000     -71.95330000
C      -42.22410000     -34.33770000     -72.14020000
C      -44.06810000     -33.16440000     -73.18550000
H      -41.65170000     -34.85160000     -71.38630000
C      -43.38910000     -33.82970000     -74.28320000
C      -45.26560000     -32.37230000     -73.60250000
C      -45.45950000     -32.48280000     -74.94970000
S      -41.98410000     -34.70110000     -73.84110000
S      -44.30930000     -33.53400000     -75.79920000
H      -46.31080000     -31.96330000     -75.41060000
