40
Properties=species:S:1:pos:R:3 #=T CELL(abcABC):=T 1.889726e+02=T 90.00000=T Traj:=T positionsangstrom=T Step:=T 0=T Bead:=T pbc="F F F"
C      -47.39030000     -31.39310000     -70.25230000
C      -46.00310000     -31.19660000     -70.09240000
C      -45.17070000     -31.12250000     -71.26980000
C      -45.62640000     -31.36150000     -72.53420000
C      -47.04060000     -31.47460000     -72.65960000
C      -47.87500000     -31.59090000     -71.57860000
H      -48.04880000     -31.41370000     -69.38420000
H      -44.10960000     -31.10350000     -71.15870000
H      -47.46710000     -31.66820000     -73.63520000
H      -48.94260000     -31.79210000     -71.53350000
C      -44.75940000     -31.44800000     -73.73480000
H      -44.95040000     -30.47710000     -74.38280000
H      -45.09360000     -32.23270000     -74.43820000
C      -45.38350000     -30.89390000     -68.80480000
H      -44.53260000     -30.31770000     -69.05710000
H      -46.22440000     -30.41690000     -68.29350000
S      -42.96610000     -31.67290000     -73.59990000
S      -44.76010000     -32.23290000     -67.80220000
C      -42.76550000     -33.54460000     -73.98960000
H      -43.25700000     -33.82550000     -74.89970000
H      -41.69340000     -33.70200000     -74.24160000
C      -43.55710000     -32.79470000     -69.08390000
H      -42.50380000     -32.49080000     -68.93700000
H      -43.75810000     -32.22290000     -70.02440000
C      -43.58810000     -34.32940000     -69.36990000
H      -42.68760000     -34.66060000     -69.95250000
H      -43.48120000     -34.91310000     -68.41840000
C      -42.99680000     -34.48930000     -72.82220000
H      -42.65960000     -34.04580000     -71.90260000
H      -42.32300000     -35.36610000     -72.91320000
C      -44.41580000     -35.01830000     -72.63180000
C      -45.18560000     -35.53980000     -73.69740000
C      -45.19090000     -35.12990000     -71.33030000
H      -44.97090000     -35.57200000     -74.73600000
C      -46.49740000     -35.58150000     -71.52860000
C      -44.91240000     -34.76470000     -69.95270000
C      -46.06910000     -35.02150000     -69.17500000
S      -46.86500000     -35.93390000     -73.20540000
S      -47.44230000     -35.56290000     -70.08200000
H      -46.33850000     -34.71720000     -68.16200000
