40
Properties=species:S:1:pos:R:3 #=T CELL(abcABC):=T 1.889726e+02=T 90.00000=T Traj:=T positionsangstrom=T Step:=T 0=T Bead:=T pbc="F F F"
C      -47.23480000     -31.42130000     -70.42390000
C      -45.85120000     -31.09500000     -70.32680000
C      -44.99260000     -31.05700000     -71.41210000
C      -45.58650000     -31.46060000     -72.61510000
C      -46.85780000     -31.92640000     -72.68220000
C      -47.73510000     -31.92970000     -71.59710000
H      -47.85780000     -31.37310000     -69.53170000
H      -44.00990000     -30.59470000     -71.22510000
H      -47.21620000     -32.31150000     -73.61780000
H      -48.73110000     -32.29030000     -71.64250000
C      -44.72700000     -31.31170000     -73.90630000
H      -44.69190000     -30.27490000     -74.20970000
H      -45.08120000     -31.94610000     -74.63070000
C      -45.35020000     -30.76470000     -68.95660000
H      -44.61280000     -29.92650000     -68.95060000
H      -46.10620000     -30.37040000     -68.28060000
S      -42.99940000     -31.78100000     -73.52290000
S      -44.72630000     -32.26300000     -67.98810000
C      -42.90370000     -33.59100000     -74.00060000
H      -43.65460000     -33.74040000     -74.77650000
H      -41.89310000     -33.62500000     -74.43210000
C      -43.34700000     -33.06260000     -68.87470000
H      -42.52980000     -33.04840000     -68.18310000
H      -43.30020000     -32.53970000     -69.79410000
C      -43.55040000     -34.60040000     -69.29220000
H      -42.67580000     -34.87950000     -69.90900000
H      -43.46810000     -35.25620000     -68.44340000
C      -43.15230000     -34.57610000     -72.78100000
H      -42.77700000     -34.09260000     -71.83520000
H      -42.47640000     -35.43510000     -72.95040000
C      -44.57630000     -34.90150000     -72.59930000
C      -45.36370000     -35.42250000     -73.61490000
C      -45.26610000     -34.86380000     -71.31220000
H      -45.10960000     -35.61140000     -74.66230000
C      -46.60180000     -35.19060000     -71.47040000
C      -44.88680000     -34.78940000     -69.92720000
C      -46.00190000     -35.04770000     -69.08320000
S      -47.00980000     -35.81790000     -73.08100000
S      -47.48750000     -35.38100000     -69.99170000
H      -46.09780000     -34.92080000     -67.97840000
