40
Properties=species:S:1:pos:R:3 #=T CELL(abcABC):=T 1.889726e+02=T 90.00000=T Traj:=T positionsangstrom=T Step:=T 0=T Bead:=T pbc="F F F"
C      -47.01080000     -31.87120000     -70.30980000
C      -45.78000000     -31.17940000     -70.29110000
C      -45.09210000     -30.90960000     -71.48500000
C      -45.62800000     -31.39270000     -72.66720000
C      -46.84760000     -32.04850000     -72.65230000
C      -47.63370000     -32.23070000     -71.52030000
H      -47.51140000     -31.99650000     -69.31610000
H      -44.11230000     -30.40110000     -71.42850000
H      -47.37830000     -32.38080000     -73.57750000
H      -48.63020000     -32.69550000     -71.53830000
C      -44.71010000     -31.34800000     -73.89630000
H      -44.60950000     -30.32440000     -74.34160000
H      -45.09690000     -31.95730000     -74.78820000
C      -45.14450000     -30.76780000     -69.07040000
H      -44.25580000     -30.14700000     -69.24050000
H      -45.82500000     -30.10850000     -68.51670000
S      -42.86850000     -31.91340000     -73.61460000
S      -44.63830000     -32.26180000     -68.01760000
C      -42.81070000     -33.71490000     -74.00440000
H      -43.49700000     -33.99750000     -74.87800000
H      -41.79170000     -33.97300000     -74.37350000
C      -43.41260000     -32.97520000     -69.12940000
H      -42.33690000     -32.65570000     -68.91450000
H      -43.47200000     -32.51100000     -70.13210000
C      -43.59610000     -34.45150000     -69.36690000
H      -42.89370000     -34.77160000     -70.12150000
H      -43.38800000     -35.01670000     -68.47870000
C      -43.17330000     -34.62680000     -72.76830000
H      -42.77330000     -34.14480000     -71.93250000
H      -42.83320000     -35.64650000     -72.82180000
C      -44.66850000     -34.90200000     -72.55350000
C      -45.52990000     -35.06310000     -73.59130000
C      -45.35370000     -34.99450000     -71.25780000
H      -45.18270000     -35.11360000     -74.64200000
C      -46.67860000     -35.38110000     -71.36000000
C      -44.94690000     -34.83970000     -69.84920000
C      -46.05680000     -34.84910000     -69.01530000
S      -47.16610000     -35.51670000     -73.07370000
S      -47.53870000     -35.33600000     -69.85020000
H      -46.00360000     -34.88190000     -67.92830000
