40
Properties=species:S:1:pos:R:3 #=T CELL(abcABC):=T 1.889726e+02=T 90.00000=T Traj:=T positionsangstrom=T Step:=T 0=T Bead:=T pbc="F F F"
C      -43.17590000     -35.96130000     -68.99870000
C      -44.30570000     -35.27700000     -68.48340000
C      -45.55980000     -35.57280000     -68.99410000
C      -45.73090000     -36.53890000     -70.02420000
C      -44.63390000     -37.14740000     -70.61640000
C      -43.36570000     -36.83070000     -70.06720000
H      -42.23960000     -35.82320000     -68.55390000
H      -46.40630000     -35.04100000     -68.64580000
H      -44.81140000     -37.88520000     -71.36550000
H      -42.46070000     -37.25950000     -70.49010000
C      -47.12620000     -36.89000000     -70.50340000
H      -47.96680000     -36.44110000     -69.85100000
H      -47.25860000     -37.99120000     -70.50720000
C      -44.23210000     -34.41130000     -67.24960000
H      -44.96770000     -34.77240000     -66.55820000
H      -43.25790000     -34.59840000     -66.80340000
S      -47.47130000     -36.44690000     -72.23940000
S      -44.47890000     -32.62770000     -67.56810000
C      -47.14560000     -34.67530000     -72.38900000
H      -47.96740000     -34.17000000     -72.84760000
H      -47.11210000     -34.25240000     -71.38020000
C      -43.83120000     -32.28960000     -69.29930000
H      -43.05070000     -33.00890000     -69.55390000
H      -43.38040000     -31.30010000     -69.11610000
C      -44.89120000     -32.51950000     -70.38740000
H      -44.66320000     -33.37300000     -70.99770000
H      -45.84670000     -32.60990000     -69.87410000
C      -45.81700000     -34.33860000     -73.16520000
H      -45.71690000     -35.01590000     -73.94990000
H      -45.00340000     -34.59670000     -72.46200000
C      -45.71160000     -32.84470000     -73.60630000
C      -45.86700000     -32.52960000     -74.95340000
C      -45.37150000     -31.66950000     -72.86920000
H      -46.23670000     -33.21050000     -75.83160000
C      -45.32530000     -30.47580000     -73.59590000
C      -44.91540000     -31.43510000     -71.48330000
C      -44.70970000     -30.06970000     -71.20800000
S      -45.70540000     -30.79780000     -75.28880000
S      -45.08520000     -29.04950000     -72.60640000
H      -44.51200000     -29.62650000     -70.23140000
