40
Properties=species:S:1:pos:R:3 #=T CELL(abcABC):=T 1.889726e+02=T 90.00000=T Traj:=T positionsangstrom=T Step:=T 0=T Bead:=T pbc="F F F"
C      -48.06780000     -35.08020000     -70.33560000
C      -47.96420000     -33.82520000     -69.64370000
C      -47.02340000     -33.68450000     -68.61630000
C      -46.20390000     -34.77820000     -68.22200000
C      -46.29570000     -35.99180000     -68.86010000
C      -47.20790000     -36.13050000     -69.99010000
H      -48.87160000     -35.18210000     -71.04540000
H      -46.80030000     -32.72430000     -68.25990000
H      -45.60380000     -36.76660000     -68.70480000
H      -47.37760000     -37.14430000     -70.38550000
C      -45.22170000     -34.60990000     -67.04680000
H      -44.81460000     -35.57920000     -66.81130000
H      -45.60340000     -34.33410000     -66.06850000
C      -48.80230000     -32.69640000     -69.98860000
H      -49.76180000     -32.94420000     -69.45840000
H      -48.38130000     -31.76440000     -69.53220000
S      -43.99620000     -33.26550000     -67.46710000
S      -49.10900000     -32.45590000     -71.81050000
C      -43.32180000     -33.72730000     -69.07590000
H      -42.38960000     -33.16270000     -69.01260000
H      -43.04220000     -34.78190000     -69.22610000
C      -47.53960000     -32.67370000     -72.67900000
H      -48.02460000     -32.57760000     -73.65500000
H      -47.11660000     -33.68080000     -72.64770000
C      -46.39000000     -31.68270000     -72.40920000
H      -46.83290000     -30.71160000     -72.63000000
H      -46.15260000     -31.74850000     -71.39280000
C      -44.15490000     -33.44370000     -70.34590000
H      -44.71430000     -32.45450000     -70.30700000
H      -44.86960000     -34.25250000     -70.41160000
C      -43.40050000     -33.38800000     -71.73680000
C      -42.20030000     -34.05270000     -72.00060000
C      -44.01660000     -32.79240000     -72.98780000
H      -41.80160000     -34.79310000     -71.22120000
C      -43.12490000     -32.90300000     -74.08650000
C      -45.23960000     -32.11160000     -73.27680000
C      -45.20200000     -31.68070000     -74.60790000
S      -41.67600000     -33.84010000     -73.67190000
S      -43.86170000     -32.17460000     -75.59690000
H      -45.94290000     -31.00850000     -75.05860000
