40
Properties=species:S:1:pos:R:3 #=T CELL(abcABC):=T 1.889726e+02=T 90.00000=T Traj:=T positionsangstrom=T Step:=T 0=T Bead:=T pbc="F F F"
C      -48.14380000     -35.27830000     -70.34560000
C      -48.04050000     -34.02970000     -69.75160000
C      -47.03750000     -33.82550000     -68.71720000
C      -46.21150000     -34.84140000     -68.28530000
C      -46.32010000     -36.11940000     -68.92460000
C      -47.25390000     -36.31610000     -69.95390000
H      -48.75960000     -35.36020000     -71.17500000
H      -47.13790000     -32.93180000     -68.21740000
H      -45.65940000     -36.88570000     -68.62820000
H      -47.26920000     -37.23550000     -70.65390000
C      -45.09390000     -34.65130000     -67.27580000
H      -44.52790000     -35.54500000     -67.16590000
H      -45.50370000     -34.31400000     -66.23620000
C      -48.85420000     -32.86150000     -70.11280000
H      -49.90370000     -32.93260000     -69.79730000
H      -48.49760000     -31.97300000     -69.63040000
S      -44.06310000     -33.22410000     -67.60960000
S      -49.09590000     -32.38510000     -71.87980000
C      -43.22640000     -33.57980000     -69.20890000
H      -42.32270000     -32.98630000     -69.23730000
H      -42.95680000     -34.64690000     -69.29920000
C      -47.44650000     -32.92430000     -72.54830000
H      -47.58240000     -33.06050000     -73.64710000
H      -47.08490000     -33.85750000     -72.14110000
C      -46.45350000     -31.78790000     -72.35780000
H      -46.85120000     -30.78620000     -72.70270000
H      -46.04930000     -31.73650000     -71.26750000
C      -44.11160000     -33.01990000     -70.29080000
H      -44.40620000     -32.01130000     -70.01230000
H      -45.09170000     -33.51030000     -70.12260000
C      -43.45380000     -33.25030000     -71.63750000
C      -42.21960000     -33.89090000     -71.88250000
C      -44.05010000     -32.79230000     -72.89550000
H      -41.55990000     -34.23710000     -71.09860000
C      -43.22180000     -32.94670000     -73.99100000
C      -45.24800000     -32.07830000     -73.21630000
C      -45.24040000     -31.60980000     -74.53340000
S      -41.72150000     -33.75180000     -73.55950000
S      -43.69860000     -32.18620000     -75.48040000
H      -45.98470000     -31.04940000     -75.10550000
