40
Properties=species:S:1:pos:R:3 #=T CELL(abcABC):=T 1.889726e+02=T 90.00000=T Traj:=T positionsangstrom=T Step:=T 0=T Bead:=T pbc="F F F"
C      -46.01260000     -31.10480000     -69.83460000
C      -44.67010000     -31.40970000     -69.96980000
C      -44.10450000     -31.63020000     -71.24530000
C      -44.99440000     -31.54180000     -72.36710000
C      -46.36240000     -31.26330000     -72.20870000
C      -46.87060000     -30.90510000     -70.93340000
H      -46.36010000     -30.83410000     -68.84210000
H      -43.05080000     -31.88830000     -71.27060000
H      -46.99640000     -31.20950000     -73.13400000
H      -47.92400000     -30.66380000     -70.80000000
C      -44.49590000     -31.53440000     -73.80580000
H      -44.15370000     -30.55440000     -74.14300000
H      -45.34520000     -31.76950000     -74.51010000
C      -43.80710000     -31.56740000     -68.75120000
H      -42.94510000     -30.86620000     -68.90030000
H      -44.38970000     -31.09850000     -67.95550000
S      -43.08240000     -32.67470000     -74.22920000
S      -43.25290000     -33.26890000     -68.22560000
C      -43.82060000     -34.39750000     -74.44130000
H      -44.51510000     -34.37640000     -75.23720000
H      -42.91440000     -34.82710000     -74.94270000
C      -42.86580000     -34.17100000     -69.79230000
H      -41.83930000     -34.50010000     -69.72120000
H      -42.97850000     -33.52900000     -70.65650000
C      -43.86440000     -35.31740000     -69.91250000
H      -43.60190000     -36.10200000     -70.68550000
H      -43.76100000     -35.82670000     -68.98780000
C      -44.29030000     -35.12660000     -73.22070000
H      -43.61740000     -34.93290000     -72.39730000
H      -44.20300000     -36.13680000     -73.36860000
C      -45.65250000     -34.81170000     -72.74700000
C      -46.74250000     -34.51100000     -73.55640000
C      -46.00590000     -34.75920000     -71.33530000
H      -46.66160000     -34.54730000     -74.62090000
C      -47.39310000     -34.55870000     -71.19950000
C      -45.33370000     -34.95610000     -70.06150000
C      -46.20260000     -34.68650000     -69.03650000
S      -48.27000000     -34.32940000     -72.68440000
S      -47.83730000     -34.31150000     -69.51810000
H      -45.95630000     -34.74630000     -67.98280000
