40
Properties=species:S:1:pos:R:3 #=T CELL(abcABC):=T 1.889726e+02=T 90.00000=T Traj:=T positionsangstrom=T Step:=T 0=T Bead:=T pbc="F F F"
C      -45.46940000     -31.22950000     -69.51310000
C      -44.12950000     -31.46400000     -69.78080000
C      -43.78570000     -31.60490000     -71.13740000
C      -44.68560000     -31.56290000     -72.23780000
C      -46.01090000     -31.26100000     -71.88710000
C      -46.36060000     -31.07270000     -70.55550000
H      -45.78230000     -31.10690000     -68.47290000
H      -42.79200000     -31.74200000     -71.42830000
H      -46.79470000     -31.15270000     -72.69570000
H      -47.43990000     -30.89700000     -70.34170000
C      -44.37330000     -31.56050000     -73.76790000
H      -43.94790000     -30.50030000     -74.03360000
H      -45.34100000     -31.67300000     -74.36820000
C      -43.07060000     -31.74990000     -68.69470000
H      -42.03400000     -31.82420000     -69.02540000
H      -43.15530000     -31.20400000     -67.80000000
S      -43.03590000     -32.77980000     -74.15520000
S      -43.38210000     -33.66600000     -68.09830000
C      -44.07710000     -34.15620000     -74.66710000
H      -44.84100000     -33.75570000     -75.35830000
H      -43.33400000     -34.81130000     -75.23800000
C      -43.05960000     -34.64110000     -69.63280000
H      -42.12120000     -35.16620000     -69.45160000
H      -42.79830000     -34.01590000     -70.49910000
C      -44.23590000     -35.66160000     -70.08320000
H      -43.85360000     -36.28140000     -70.94020000
H      -44.52260000     -36.45070000     -69.35900000
C      -44.63630000     -35.04290000     -73.60470000
H      -43.79910000     -35.09970000     -72.81920000
H      -44.85820000     -36.00070000     -74.11880000
C      -45.95640000     -34.60110000     -72.94260000
C      -47.00290000     -34.15950000     -73.71150000
C      -46.20910000     -34.51310000     -71.54620000
H      -47.10160000     -34.06260000     -74.75870000
C      -47.52820000     -34.11880000     -71.24830000
C      -45.58130000     -35.04570000     -70.32960000
C      -46.39210000     -34.92490000     -69.25150000
S      -48.39380000     -33.73340000     -72.73440000
S      -47.99940000     -34.28260000     -69.58000000
H      -45.98810000     -35.16250000     -68.23240000
