40
Properties=species:S:1:pos:R:3 #=T CELL(abcABC):=T 1.889726e+02=T 90.00000=T Traj:=T positionsangstrom=T Step:=T 0=T Bead:=T pbc="F F F"
C      -45.23730000     -31.48720000     -69.52590000
C      -43.89990000     -31.70250000     -69.84810000
C      -43.62590000     -31.71000000     -71.23760000
C      -44.47500000     -31.33100000     -72.30860000
C      -45.74120000     -30.88920000     -71.89300000
C      -46.10190000     -31.03940000     -70.55030000
H      -45.66460000     -31.52390000     -68.58160000
H      -42.58300000     -31.94790000     -71.49520000
H      -46.37630000     -30.32930000     -72.64820000
H      -47.08170000     -30.73190000     -70.36720000
C      -44.01640000     -31.34620000     -73.78730000
H      -43.38500000     -30.56150000     -74.06590000
H      -44.82570000     -31.31830000     -74.41900000
C      -42.90550000     -32.19390000     -68.85760000
H      -41.87370000     -32.38110000     -69.30060000
H      -42.83930000     -31.51380000     -67.99390000
S      -43.06320000     -32.79440000     -74.08160000
S      -43.41780000     -33.80790000     -68.12750000
C      -44.16290000     -34.18620000     -74.61790000
H      -45.05580000     -33.74340000     -75.14900000
H      -43.61400000     -34.77860000     -75.25340000
C      -43.19000000     -34.77940000     -69.67020000
H      -42.30880000     -35.44290000     -69.48590000
H      -42.92250000     -34.22730000     -70.54910000
C      -44.44610000     -35.69060000     -70.14360000
H      -44.09010000     -36.01640000     -71.10680000
H      -44.60270000     -36.55220000     -69.49440000
C      -44.73630000     -35.06700000     -73.52670000
H      -44.00500000     -35.20960000     -72.75120000
H      -44.85310000     -36.05960000     -73.92700000
C      -46.02490000     -34.54120000     -72.86040000
C      -47.06680000     -34.10990000     -73.67100000
C      -46.32480000     -34.59530000     -71.47850000
H      -47.10320000     -34.01170000     -74.69440000
C      -47.64570000     -34.15810000     -71.26520000
C      -45.68360000     -34.83340000     -70.23560000
C      -46.57540000     -34.78240000     -69.17540000
S      -48.47120000     -33.65100000     -72.68990000
S      -48.15710000     -34.16910000     -69.63070000
H      -46.23800000     -34.94140000     -68.14260000
