40
Properties=species:S:1:pos:R:3 #=T CELL(abcABC):=T 1.889726e+02=T 90.00000=T Traj:=T positionsangstrom=T Step:=T 0=T Bead:=T pbc="F F F"
C      -44.83200000     -31.53320000     -69.75760000
C      -43.50910000     -32.04110000     -70.02870000
C      -43.03680000     -31.91190000     -71.30490000
C      -43.79540000     -31.44000000     -72.39120000
C      -45.13890000     -31.08780000     -72.09450000
C      -45.63280000     -31.15310000     -70.80470000
H      -45.21810000     -31.64490000     -68.77510000
H      -41.98340000     -32.16350000     -71.48900000
H      -45.70640000     -30.69880000     -72.96940000
H      -46.75090000     -30.94900000     -70.59180000
C      -43.30540000     -31.51200000     -73.80090000
H      -42.39380000     -30.88870000     -73.97580000
H      -44.08110000     -31.18800000     -74.46940000
C      -42.69000000     -32.52290000     -68.82810000
H      -41.67110000     -32.44870000     -69.17910000
H      -42.79540000     -31.80950000     -68.06880000
S      -42.87660000     -33.28790000     -74.21520000
S      -43.20440000     -34.15500000     -68.21400000
C      -44.53340000     -34.05440000     -74.56880000
H      -45.22610000     -33.24570000     -74.94790000
H      -44.30360000     -34.65470000     -75.44200000
C      -43.39340000     -35.18060000     -69.89680000
H      -42.65060000     -35.98670000     -69.82340000
H      -43.14760000     -34.40020000     -70.62220000
C      -44.82520000     -35.76950000     -70.17590000
H      -44.65260000     -36.35510000     -71.09800000
H      -44.95900000     -36.44810000     -69.29540000
C      -45.19250000     -34.91890000     -73.43400000
H      -44.52850000     -35.25140000     -72.63350000
H      -45.44730000     -35.92240000     -73.84640000
C      -46.50210000     -34.24870000     -72.84020000
C      -47.49040000     -33.52720000     -73.53480000
C      -46.78420000     -34.44360000     -71.40550000
H      -47.69840000     -33.15730000     -74.55170000
C      -47.90040000     -33.73130000     -71.08760000
C      -46.09360000     -34.97740000     -70.26130000
C      -46.85060000     -34.68080000     -69.13020000
S      -48.76830000     -32.97350000     -72.40280000
S      -48.37840000     -33.87050000     -69.42460000
H      -46.65120000     -34.92060000     -68.07580000
