40
Properties=species:S:1:pos:R:3 #=T CELL(abcABC):=T 1.889726e+02=T 90.00000=T Traj:=T positionsangstrom=T Step:=T 0=T Bead:=T pbc="F F F"
C      -44.72380000     -31.56800000     -69.78610000
C      -43.44680000     -32.01790000     -70.10780000
C      -42.97890000     -31.91980000     -71.41300000
C      -43.73790000     -31.44940000     -72.43440000
C      -45.08240000     -31.09700000     -72.12840000
C      -45.58520000     -31.10170000     -70.80330000
H      -45.08150000     -31.40970000     -68.73620000
H      -41.94850000     -32.32700000     -71.62110000
H      -45.72510000     -30.83820000     -72.94880000
H      -46.60670000     -30.85210000     -70.59920000
C      -43.21860000     -31.71910000     -73.83650000
H      -42.29500000     -31.14700000     -73.93450000
H      -43.93100000     -31.38100000     -74.58620000
C      -42.60290000     -32.61570000     -69.01330000
H      -41.57110000     -32.96460000     -69.24980000
H      -42.59920000     -31.98120000     -68.06560000
S      -42.91860000     -33.52730000     -74.24610000
S      -43.48920000     -34.17490000     -68.43600000
C      -44.64110000     -33.95930000     -74.61660000
H      -45.18870000     -32.98780000     -74.75890000
H      -44.74040000     -34.60460000     -75.44330000
C      -43.63580000     -35.08310000     -70.05470000
H      -42.72010000     -35.68810000     -70.26420000
H      -43.66340000     -34.35090000     -70.84220000
C      -44.86470000     -35.85820000     -70.08850000
H      -44.96940000     -36.65280000     -70.78540000
H      -45.01860000     -36.41940000     -69.15790000
C      -45.15930000     -34.80410000     -73.36260000
H      -44.29410000     -34.97850000     -72.74830000
H      -45.44030000     -35.74300000     -73.79900000
C      -46.39300000     -34.15990000     -72.68780000
C      -47.31560000     -33.43250000     -73.40630000
C      -46.72870000     -34.31810000     -71.25750000
H      -47.20210000     -33.17260000     -74.46790000
C      -47.88310000     -33.60390000     -70.93180000
C      -46.13650000     -35.01040000     -70.14740000
C      -46.92960000     -34.85970000     -69.01450000
S      -48.61890000     -32.79920000     -72.41150000
S      -48.37540000     -33.83240000     -69.25380000
H      -46.59300000     -35.00870000     -68.00230000
