40
Properties=species:S:1:pos:R:3 #=T CELL(abcABC):=T 1.889726e+02=T 90.00000=T Traj:=T positionsangstrom=T Step:=T 0=T Bead:=T pbc="F F F"
C      -44.66610000     -31.36210000     -69.91950000
C      -43.46780000     -32.00670000     -70.14030000
C      -42.94110000     -32.13310000     -71.39570000
C      -43.60200000     -31.62790000     -72.49110000
C      -44.84750000     -31.04950000     -72.31730000
C      -45.42560000     -30.92230000     -70.99650000
H      -45.17910000     -31.39410000     -68.87810000
H      -41.93520000     -32.56430000     -71.52850000
H      -45.45920000     -30.81780000     -73.11780000
H      -46.28030000     -30.38290000     -70.90410000
C      -43.05390000     -31.75840000     -73.91390000
H      -42.02110000     -31.45780000     -73.89660000
H      -43.63100000     -31.19170000     -74.69480000
C      -42.73740000     -32.57100000     -68.94590000
H      -41.73220000     -32.80740000     -69.11890000
H      -42.78730000     -32.00620000     -67.98160000
S      -42.88740000     -33.54380000     -74.52500000
S      -43.55280000     -34.27090000     -68.56250000
C      -44.60250000     -34.44910000     -74.54890000
H      -45.23120000     -33.80900000     -75.17120000
H      -44.31940000     -35.31210000     -75.18230000
C      -43.84710000     -35.15820000     -70.13600000
H      -42.99820000     -35.75800000     -70.48900000
H      -43.98080000     -34.40860000     -70.85260000
C      -45.13360000     -36.01140000     -70.14940000
H      -45.00520000     -36.61070000     -71.06490000
H      -45.01500000     -36.64140000     -69.25830000
C      -45.24370000     -34.90810000     -73.29890000
H      -44.51350000     -35.10240000     -72.50300000
H      -45.73330000     -35.89920000     -73.52130000
C      -46.39070000     -34.12780000     -72.53840000
C      -47.21640000     -33.28640000     -73.19280000
C      -46.76160000     -34.31420000     -71.13450000
H      -47.03980000     -33.15410000     -74.26430000
C      -47.85970000     -33.48350000     -70.77430000
C      -46.37200000     -35.15720000     -70.05530000
C      -47.10730000     -34.85580000     -68.92060000
S      -48.50850000     -32.59470000     -72.18530000
S      -48.36670000     -33.63060000     -69.14470000
H      -46.95580000     -35.32760000     -67.99010000
