40
Properties=species:S:1:pos:R:3 #=T CELL(abcABC):=T 1.889726e+02=T 90.00000=T Traj:=T positionsangstrom=T Step:=T 0=T Bead:=T pbc="F F F"
C      -45.75610000     -34.45450000     -74.95650000
C      -44.44790000     -33.98920000     -74.65170000
C      -43.70450000     -34.85850000     -73.82660000
C      -44.22910000     -36.10710000     -73.40180000
C      -45.53060000     -36.54100000     -73.72660000
C      -46.31450000     -35.63350000     -74.47780000
H      -46.29570000     -33.88950000     -75.64120000
H      -42.77470000     -34.49510000     -73.45110000
H      -45.93430000     -37.50530000     -73.31190000
H      -47.24070000     -35.96430000     -74.77900000
C      -43.45320000     -37.00580000     -72.41480000
H      -42.55100000     -37.41660000     -72.77000000
H      -44.08240000     -37.80460000     -72.12070000
C      -43.97460000     -32.59100000     -74.87080000
H      -42.95090000     -32.46920000     -74.64280000
H      -44.12350000     -32.02060000     -75.83550000
S      -42.96740000     -36.03430000     -70.82040000
S      -44.87310000     -31.39060000     -73.79140000
C      -44.49770000     -35.41250000     -70.14180000
H      -45.04520000     -34.87090000     -70.94600000
H      -45.14840000     -36.28190000     -69.92240000
C      -43.65020000     -31.21350000     -72.35200000
H      -43.55370000     -30.18590000     -72.04190000
H      -42.67100000     -31.51020000     -72.61720000
C      -44.10140000     -31.98420000     -71.13290000
H      -44.30350000     -33.05200000     -71.36640000
H      -43.27970000     -31.98590000     -70.42720000
C      -44.37580000     -34.39810000     -68.87610000
H      -43.45390000     -33.80310000     -68.87910000
H      -44.27140000     -35.03680000     -67.94220000
C      -45.62370000     -33.61530000     -68.77370000
C      -46.67190000     -34.04750000     -67.97290000
C      -45.91860000     -32.29130000     -69.33600000
H      -46.63260000     -35.00170000     -67.41800000
C      -47.15250000     -31.81810000     -68.93910000
C      -45.37950000     -31.45960000     -70.38790000
C      -46.09490000     -30.30050000     -70.57440000
S      -47.93660000     -32.83890000     -67.73200000
S      -47.67750000     -30.32080000     -69.69430000
H      -45.83910000     -29.53590000     -71.17170000
