40
Properties=species:S:1:pos:R:3 #=T CELL(abcABC):=T 1.889726e+02=T 90.00000=T Traj:=T positionsangstrom=T Step:=T 0=T Bead:=T pbc="F F F"
C      -45.71240000     -34.56560000     -75.16180000
C      -44.59380000     -33.97510000     -74.57490000
C      -43.96830000     -34.77430000     -73.62190000
C      -44.47570000     -36.05220000     -73.24230000
C      -45.64310000     -36.59600000     -73.82290000
C      -46.20510000     -35.80830000     -74.84590000
H      -46.28770000     -34.03440000     -75.81000000
H      -43.07260000     -34.43700000     -73.14190000
H      -46.11370000     -37.60190000     -73.56270000
H      -47.15350000     -36.11460000     -75.31340000
C      -43.62250000     -36.94090000     -72.31950000
H      -42.67480000     -37.05460000     -72.85290000
H      -44.23270000     -37.90670000     -72.11530000
C      -44.01990000     -32.68870000     -75.05670000
H      -42.93430000     -32.79040000     -75.03890000
H      -44.45920000     -32.53200000     -76.10740000
S      -43.10010000     -36.07160000     -70.78830000
S      -44.75290000     -31.26050000     -73.92000000
C      -44.70350000     -35.35520000     -70.15320000
H      -45.15420000     -34.76290000     -70.97580000
H      -45.32030000     -36.16330000     -69.82390000
C      -43.65540000     -31.03070000     -72.39400000
H      -43.82670000     -29.95600000     -72.10410000
H      -42.66400000     -31.25650000     -72.79160000
C      -44.02200000     -31.94850000     -71.18090000
H      -43.79220000     -32.96840000     -71.45310000
H      -43.22830000     -31.78040000     -70.37090000
C      -44.29870000     -34.35330000     -69.06450000
H      -43.52850000     -33.69400000     -69.41290000
H      -43.89090000     -34.85380000     -68.17650000
C      -45.57750000     -33.66210000     -68.70550000
C      -46.42770000     -33.88070000     -67.61010000
C      -45.91070000     -32.42710000     -69.32670000
H      -46.31440000     -34.62140000     -66.87800000
C      -47.11610000     -31.85900000     -68.86200000
C      -45.40930000     -31.68290000     -70.46660000
C      -46.10490000     -30.48750000     -70.65530000
S      -47.84980000     -32.80940000     -67.61770000
S      -47.51390000     -30.32360000     -69.55510000
H      -46.03690000     -29.73000000     -71.35090000
