40
Properties=species:S:1:pos:R:3 #=T CELL(abcABC):=T 1.889726e+02=T 90.00000=T Traj:=T positionsangstrom=T Step:=T 0=T Bead:=T pbc="F F F"
C      -44.04170000     -31.16350000     -70.75300000
C      -43.29780000     -32.36810000     -70.85040000
C      -43.39950000     -33.04910000     -72.09520000
C      -44.27570000     -32.65410000     -73.07240000
C      -44.86330000     -31.43210000     -73.01330000
C      -44.74500000     -30.68130000     -71.84610000
H      -43.90310000     -30.56240000     -69.88050000
H      -42.96460000     -34.03390000     -72.15680000
H      -45.40670000     -31.14920000     -73.91960000
H      -45.15590000     -29.68040000     -71.80900000
C      -44.48240000     -33.46060000     -74.38570000
H      -43.74200000     -33.16590000     -75.18670000
H      -45.46210000     -33.23760000     -74.84270000
C      -42.37010000     -32.69270000     -69.74430000
H      -41.48500000     -33.10130000     -70.19360000
H      -42.00530000     -31.83520000     -69.21820000
S      -44.28050000     -35.29420000     -74.33080000
S      -43.01660000     -33.85060000     -68.46020000
C      -45.82560000     -36.06220000     -73.75390000
H      -46.73100000     -35.70200000     -74.31810000
H      -45.72790000     -37.11060000     -73.90560000
C      -43.73880000     -35.18450000     -69.40060000
H      -43.24770000     -36.12110000     -69.11200000
H      -43.54940000     -35.13270000     -70.48450000
C      -45.27920000     -35.24150000     -69.07720000
H      -45.67000000     -36.10260000     -69.66690000
H      -45.58730000     -35.43300000     -68.02110000
C      -46.07230000     -35.82730000     -72.25360000
H      -45.10250000     -35.74240000     -71.72890000
H      -46.44620000     -36.78490000     -71.82350000
C      -46.85160000     -34.56080000     -71.91960000
C      -47.66830000     -33.94380000     -72.81580000
C      -46.55900000     -33.69800000     -70.77920000
H      -48.07350000     -34.29850000     -73.80100000
C      -47.12460000     -32.43520000     -70.87240000
C      -46.00530000     -33.94110000     -69.53420000
C      -46.14580000     -32.90710000     -68.65740000
S      -48.21160000     -32.32850000     -72.32680000
S      -47.05670000     -31.53990000     -69.40300000
H      -45.90090000     -32.85310000     -67.59880000
