40
Properties=species:S:1:pos:R:3 #=T CELL(abcABC):=T 1.889726e+02=T 90.00000=T Traj:=T positionsangstrom=T Step:=T 0=T Bead:=T pbc="F F F"
C      -46.53120000     -34.22830000     -74.79060000
C      -45.17240000     -33.81550000     -74.45750000
C      -44.38720000     -34.73970000     -73.73580000
C      -44.92030000     -35.94210000     -73.35540000
C      -46.19420000     -36.35030000     -73.71870000
C      -46.97970000     -35.51350000     -74.50620000
H      -47.19510000     -33.47230000     -75.12880000
H      -43.43970000     -34.38090000     -73.25910000
H      -46.65310000     -37.27380000     -73.43660000
H      -47.92810000     -35.85570000     -74.74850000
C      -44.11210000     -36.88890000     -72.54640000
H      -43.34170000     -37.45200000     -73.13610000
H      -44.68810000     -37.74100000     -72.24170000
C      -44.62970000     -32.47490000     -75.01430000
H      -43.50840000     -32.56070000     -74.98790000
H      -44.89470000     -32.36620000     -76.05160000
S      -43.12780000     -36.44600000     -71.14990000
S      -45.17760000     -30.98810000     -74.17250000
C      -44.37390000     -35.45730000     -70.22760000
H      -44.90080000     -34.96960000     -71.04070000
H      -45.07560000     -36.06440000     -69.63370000
C      -44.07310000     -30.81150000     -72.71450000
H      -44.15980000     -29.79970000     -72.40780000
H      -43.06170000     -30.81880000     -73.14410000
C      -44.21130000     -31.79700000     -71.59810000
H      -44.23400000     -32.81980000     -72.05220000
H      -43.13920000     -31.75750000     -71.14220000
C      -43.70320000     -34.40430000     -69.30230000
H      -42.97100000     -33.87810000     -69.95880000
H      -43.06030000     -34.80270000     -68.46780000
C      -44.87270000     -33.59930000     -68.72400000
C      -45.39630000     -33.95060000     -67.50980000
C      -45.44260000     -32.36780000     -69.27330000
H      -45.21510000     -34.91510000     -66.92130000
C      -46.57030000     -31.97780000     -68.52700000
C      -45.26150000     -31.58040000     -70.49800000
C      -46.27120000     -30.66830000     -70.71950000
S      -46.79320000     -32.95430000     -67.04510000
S      -47.40460000     -30.68710000     -69.38720000
H      -46.41900000     -30.02910000     -71.70750000
