40
Properties=species:S:1:pos:R:3 #=T CELL(abcABC):=T 1.889726e+02=T 90.00000=T Traj:=T positionsangstrom=T Step:=T 0=T Bead:=T pbc="F F F"
C      -46.67520000     -34.12540000     -74.63350000
C      -45.29680000     -33.82650000     -74.55410000
C      -44.44180000     -34.75900000     -73.99480000
C      -44.95070000     -35.93440000     -73.45970000
C      -46.33750000     -36.27200000     -73.56240000
C      -47.14690000     -35.34220000     -74.17140000
H      -47.35220000     -33.42210000     -75.16920000
H      -43.40190000     -34.71770000     -74.14330000
H      -46.77120000     -37.19800000     -73.15150000
H      -48.15480000     -35.71270000     -74.34730000
C      -44.02730000     -36.96660000     -72.87470000
H      -43.26340000     -37.19570000     -73.58130000
H      -44.59660000     -37.85360000     -72.58750000
C      -44.73820000     -32.53200000     -74.94360000
H      -43.66760000     -32.46460000     -74.85330000
H      -44.99060000     -32.31040000     -76.02080000
S      -43.07660000     -36.48320000     -71.34800000
S      -45.39430000     -31.03320000     -73.96760000
C      -44.27250000     -35.47780000     -70.31430000
H      -44.96820000     -34.96570000     -71.04010000
H      -44.92380000     -36.23440000     -69.86650000
C      -44.11580000     -30.93780000     -72.78190000
H      -44.16620000     -29.85740000     -72.39480000
H      -43.12190000     -31.16220000     -73.29270000
C      -44.20710000     -32.02010000     -71.63110000
H      -44.42010000     -32.97120000     -72.12720000
H      -43.26420000     -32.15940000     -71.14320000
C      -43.68480000     -34.47630000     -69.30220000
H      -42.95330000     -33.83410000     -69.82390000
H      -43.21600000     -35.10070000     -68.58600000
C      -44.71300000     -33.60570000     -68.66320000
C      -45.27820000     -33.82980000     -67.43760000
C      -45.39780000     -32.48680000     -69.34870000
H      -44.99710000     -34.51620000     -66.74120000
C      -46.43830000     -32.01040000     -68.58080000
C      -45.35710000     -31.75460000     -70.60830000
C      -46.36580000     -30.81790000     -70.75150000
S      -46.58190000     -32.69670000     -66.98640000
S      -47.29760000     -30.60490000     -69.27230000
H      -46.44290000     -30.23490000     -71.63120000
