40
Properties=species:S:1:pos:R:3 #=T CELL(abcABC):=T 1.889726e+02=T 90.00000=T Traj:=T positionsangstrom=T Step:=T 0=T Bead:=T pbc="F F F"
C      -46.81500000     -34.13100000     -74.46280000
C      -45.41760000     -33.88610000     -74.59060000
C      -44.44840000     -34.78490000     -74.12830000
C      -44.95980000     -35.96920000     -73.47640000
C      -46.35160000     -36.18290000     -73.42400000
C      -47.32490000     -35.19930000     -73.79320000
H      -47.53820000     -33.41200000     -74.80450000
H      -43.39560000     -34.51420000     -74.09420000
H      -46.70130000     -37.15940000     -73.05020000
H      -48.39850000     -35.33960000     -73.47370000
C      -44.04770000     -37.03970000     -72.93040000
H      -43.30250000     -37.33470000     -73.67830000
H      -44.61420000     -37.93320000     -72.51870000
C      -44.99600000     -32.52850000     -75.11690000
H      -43.87010000     -32.36930000     -75.22100000
H      -45.50860000     -32.38710000     -76.02040000
S      -43.14200000     -36.21010000     -71.50210000
S      -45.47850000     -31.18610000     -73.91440000
C      -44.49730000     -35.41670000     -70.56490000
H      -45.18580000     -34.79640000     -71.10820000
H      -45.07760000     -36.17090000     -70.01700000
C      -44.04800000     -31.12730000     -72.68840000
H      -44.13110000     -30.13140000     -72.26680000
H      -43.10140000     -31.20360000     -73.22470000
C      -44.20420000     -32.16720000     -71.58100000
H      -44.36230000     -33.15020000     -72.08740000
H      -43.27520000     -32.12430000     -70.93780000
C      -43.79740000     -34.55210000     -69.53910000
H      -43.08290000     -33.83680000     -70.05150000
H      -43.27160000     -35.16810000     -68.75230000
C      -44.68790000     -33.64780000     -68.76930000
C      -45.00590000     -33.80150000     -67.45770000
C      -45.45550000     -32.56840000     -69.35430000
H      -44.61490000     -34.48290000     -66.72970000
C      -46.39440000     -31.99520000     -68.49820000
C      -45.35560000     -31.86270000     -70.59230000
C      -46.23820000     -30.79070000     -70.71920000
S      -46.22800000     -32.62600000     -66.90200000
S      -47.24880000     -30.62670000     -69.25970000
H      -46.13580000     -30.10360000     -71.46810000
