40
Properties=species:S:1:pos:R:3 #=T CELL(abcABC):=T 1.889726e+02=T 90.00000=T Traj:=T positionsangstrom=T Step:=T 0=T Bead:=T pbc="F F F"
C      -44.36220000     -34.58090000     -67.55820000
C      -45.05160000     -33.40810000     -67.98780000
C      -44.30990000     -32.43540000     -68.64310000
C      -42.99380000     -32.63120000     -69.04880000
C      -42.36010000     -33.72410000     -68.57910000
C      -43.02060000     -34.72320000     -67.80690000
H      -44.87330000     -35.35570000     -67.00130000
H      -44.96630000     -31.58890000     -68.92140000
H      -41.34620000     -33.93610000     -68.92230000
H      -42.42900000     -35.59730000     -67.42450000
C      -42.20340000     -31.51620000     -69.74110000
H      -41.15910000     -31.50020000     -69.44030000
H      -42.65290000     -30.55960000     -69.61850000
C      -46.47380000     -33.28310000     -67.63710000
H      -46.57520000     -33.15710000     -66.52910000
H      -46.85460000     -32.27710000     -67.92830000
S      -42.37970000     -31.87980000     -71.66430000
S      -47.51510000     -34.63430000     -68.21810000
C      -43.73340000     -30.72750000     -72.09900000
H      -43.72830000     -29.89340000     -71.30320000
H      -43.45810000     -30.33220000     -73.12290000
C      -47.18640000     -34.67180000     -70.02540000
H      -47.72380000     -35.61300000     -70.37460000
H      -46.06380000     -34.87490000     -70.13070000
C      -47.56050000     -33.46090000     -70.93070000
H      -48.61350000     -33.23700000     -70.75600000
H      -46.96410000     -32.59270000     -70.74010000
C      -45.06710000     -31.45130000     -71.97220000
H      -45.96420000     -30.75660000     -71.96170000
H      -45.15290000     -32.00810000     -71.03750000
C      -45.23870000     -32.45480000     -73.12120000
C      -44.54860000     -32.30560000     -74.29630000
C      -46.30780000     -33.43710000     -73.18190000
H      -43.73990000     -31.65920000     -74.53090000
C      -46.31460000     -34.04860000     -74.46670000
C      -47.33690000     -33.88260000     -72.35840000
C      -48.18030000     -34.78310000     -72.94980000
S      -45.10020000     -33.41790000     -75.52970000
S      -47.59590000     -35.18490000     -74.56190000
H      -48.99380000     -35.19070000     -72.44200000
