40
Properties=species:S:1:pos:R:3 #=T CELL(abcABC):=T 1.889726e+02=T 90.00000=T Traj:=T positionsangstrom=T Step:=T 0=T Bead:=T pbc="F F F"
C      -47.59570000     -34.00060000     -73.97690000
C      -46.26160000     -33.78730000     -74.42990000
C      -45.24870000     -34.70730000     -74.16170000
C      -45.45690000     -35.75950000     -73.27440000
C      -46.74600000     -35.90260000     -72.77010000
C      -47.82620000     -35.11510000     -73.22140000
H      -48.28500000     -33.18040000     -74.31410000
H      -44.26770000     -34.57700000     -74.45440000
H      -46.93800000     -36.81580000     -72.26010000
H      -48.81190000     -35.41670000     -72.91490000
C      -44.46140000     -36.82700000     -72.81940000
H      -43.95220000     -37.35060000     -73.66020000
H      -44.98220000     -37.58320000     -72.19870000
C      -45.80510000     -32.56030000     -75.17440000
H      -44.74320000     -32.83130000     -75.43730000
H      -46.44570000     -32.32470000     -76.03220000
S      -42.96110000     -36.15260000     -71.86220000
S      -45.78330000     -31.04210000     -74.16390000
C      -43.84800000     -35.53160000     -70.43120000
H      -44.75180000     -34.95840000     -70.79080000
H      -44.17650000     -36.35130000     -69.75960000
C      -44.24010000     -31.45050000     -73.10980000
H      -43.78100000     -30.51080000     -72.89730000
H      -43.58350000     -31.86000000     -73.79280000
C      -44.37450000     -32.35920000     -71.89800000
H      -44.93040000     -33.21050000     -72.22460000
H      -43.35280000     -32.52010000     -71.60390000
C      -43.04190000     -34.48830000     -69.58180000
H      -42.52900000     -33.73440000     -70.30640000
H      -42.39610000     -34.96420000     -68.91740000
C      -44.15410000     -33.65570000     -68.85210000
C      -44.53290000     -33.88100000     -67.58920000
C      -44.92690000     -32.51200000     -69.34740000
H      -43.96660000     -34.48400000     -66.82040000
C      -45.86500000     -32.06110000     -68.45300000
C      -45.12710000     -31.85660000     -70.70840000
C      -46.16540000     -30.93400000     -70.72940000
S      -45.81210000     -32.83770000     -66.88410000
S      -46.84280000     -30.67420000     -69.08840000
H      -46.43260000     -30.22600000     -71.54880000
