40
Properties=species:S:1:pos:R:3 #=T CELL(abcABC):=T 1.889726e+02=T 90.00000=T Traj:=T positionsangstrom=T Step:=T 0=T Bead:=T pbc="F F F"
C      -47.70980000     -34.09630000     -73.37210000
C      -46.50190000     -33.95300000     -74.00350000
C      -45.54580000     -34.96460000     -73.97600000
C      -45.65640000     -36.07190000     -73.16930000
C      -46.94510000     -36.25380000     -72.52980000
C      -47.93330000     -35.23550000     -72.56120000
H      -48.38460000     -33.27730000     -73.52860000
H      -44.60270000     -34.76790000     -74.57450000
H      -47.28010000     -37.13790000     -71.95800000
H      -48.89780000     -35.43130000     -72.09870000
C      -44.45280000     -37.03340000     -73.05520000
H      -44.14570000     -37.20450000     -74.08360000
H      -44.72810000     -37.89760000     -72.47470000
C      -46.19290000     -32.70440000     -74.81800000
H      -45.36450000     -32.81410000     -75.51540000
H      -47.16250000     -32.62700000     -75.40950000
S      -43.16030000     -36.04850000     -72.11310000
S      -46.11070000     -31.09080000     -74.03110000
C      -44.10450000     -35.59100000     -70.59820000
H      -45.02010000     -35.04060000     -70.94470000
H      -44.38260000     -36.52250000     -70.06220000
C      -44.39070000     -31.14650000     -73.29340000
H      -44.20400000     -30.17640000     -72.95290000
H      -43.79980000     -31.44570000     -74.12150000
C      -44.20290000     -32.09110000     -72.14670000
H      -44.45280000     -33.07160000     -72.49900000
H      -43.13370000     -32.05130000     -71.96140000
C      -43.17980000     -34.63310000     -69.77580000
H      -42.49290000     -34.16490000     -70.54750000
H      -42.55570000     -35.25490000     -69.00640000
C      -44.03760000     -33.65230000     -69.07010000
C      -44.14750000     -33.70670000     -67.70050000
C      -44.82510000     -32.53990000     -69.60940000
H      -43.70830000     -34.39750000     -67.02350000
C      -45.52790000     -31.94610000     -68.53680000
C      -44.96350000     -31.84340000     -70.87060000
C      -45.89390000     -30.77410000     -70.79940000
S      -45.29660000     -32.57180000     -66.93600000
S      -46.55910000     -30.66000000     -69.14570000
H      -46.32390000     -30.18620000     -71.59220000
