40
Properties=species:S:1:pos:R:3 #=T CELL(abcABC):=T 1.889726e+02=T 90.00000=T Traj:=T positionsangstrom=T Step:=T 0=T Bead:=T pbc="F F F"
C      -47.99710000     -34.28850000     -73.26550000
C      -46.85650000     -33.99750000     -74.03340000
C      -45.81770000     -34.96010000     -74.12560000
C      -45.76230000     -36.02120000     -73.21580000
C      -46.92990000     -36.30700000     -72.44840000
C      -47.98750000     -35.45000000     -72.44990000
H      -48.85150000     -33.58670000     -73.11210000
H      -44.95250000     -34.85670000     -74.72510000
H      -46.83840000     -37.14210000     -71.75140000
H      -48.87890000     -35.63750000     -71.92930000
C      -44.57420000     -36.96970000     -73.38960000
H      -44.17120000     -37.00150000     -74.42380000
H      -44.95200000     -37.93120000     -73.01290000
C      -46.85500000     -32.73850000     -74.82620000
H      -46.16760000     -32.72810000     -75.71410000
H      -47.86420000     -32.64650000     -75.16780000
S      -43.24140000     -36.49650000     -72.15180000
S      -46.66590000     -31.23380000     -73.85580000
C      -44.03240000     -35.56960000     -70.74900000
H      -44.91960000     -35.04530000     -71.17450000
H      -44.40970000     -36.36700000     -70.06040000
C      -44.76800000     -31.30990000     -73.42050000
H      -44.38270000     -30.29060000     -73.28210000
H      -44.25550000     -31.83260000     -74.28210000
C      -44.39440000     -32.13650000     -72.14360000
H      -44.87990000     -33.14660000     -72.35190000
H      -43.29180000     -32.15950000     -72.12050000
C      -43.13190000     -34.48470000     -70.15860000
H      -42.75740000     -33.87160000     -71.04360000
H      -42.18030000     -34.88340000     -69.82590000
C      -43.82460000     -33.53560000     -69.15860000
C      -44.05120000     -33.81640000     -67.85110000
C      -44.48740000     -32.33780000     -69.55980000
H      -43.88410000     -34.75990000     -67.37380000
C      -45.05340000     -31.70590000     -68.45830000
C      -44.86080000     -31.61410000     -70.80510000
C      -45.61200000     -30.49650000     -70.59960000
S      -44.97210000     -32.60070000     -66.96870000
S      -45.86060000     -30.21840000     -68.88590000
H      -45.95040000     -29.84500000     -71.37220000
