40
Properties=species:S:1:pos:R:3 #=T CELL(abcABC):=T 1.889726e+02=T 90.00000=T Traj:=T positionsangstrom=T Step:=T 0=T Bead:=T pbc="F F F"
C      -48.08700000     -34.32310000     -73.32900000
C      -46.91550000     -33.97160000     -74.08640000
C      -45.77500000     -34.82690000     -74.04740000
C      -45.81640000     -35.95620000     -73.24310000
C      -46.98350000     -36.33970000     -72.56070000
C      -48.09940000     -35.53220000     -72.67230000
H      -48.96290000     -33.72430000     -73.48800000
H      -44.86760000     -34.71220000     -74.67870000
H      -47.01830000     -37.26790000     -72.03680000
H      -49.04730000     -35.91930000     -72.33230000
C      -44.64320000     -36.95460000     -73.19650000
H      -44.15500000     -36.99350000     -74.18350000
H      -45.04650000     -37.99670000     -73.15900000
C      -46.95380000     -32.73390000     -74.86600000
H      -46.20710000     -32.68000000     -75.60330000
H      -47.85720000     -32.68230000     -75.51630000
S      -43.19820000     -36.49730000     -72.13220000
S      -46.83420000     -31.29520000     -73.67440000
C      -44.14750000     -35.61240000     -70.84380000
H      -45.04570000     -35.05920000     -71.23450000
H      -44.40140000     -36.28060000     -70.07980000
C      -45.07820000     -31.18840000     -73.28410000
H      -44.99110000     -30.13080000     -73.00800000
H      -44.55140000     -31.25470000     -74.21170000
C      -44.59850000     -32.13780000     -72.23250000
H      -45.07450000     -33.12970000     -72.20920000
H      -43.53380000     -32.27220000     -72.30570000
C      -43.18850000     -34.63470000     -70.17590000
H      -42.66620000     -33.98280000     -70.87080000
H      -42.49860000     -35.16930000     -69.57460000
C      -43.91440000     -33.65450000     -69.24500000
C      -43.98070000     -33.92290000     -67.91370000
C      -44.48180000     -32.36560000     -69.58340000
H      -43.43130000     -34.71880000     -67.41220000
C      -44.96900000     -31.70440000     -68.49160000
C      -44.83360000     -31.61950000     -70.83000000
C      -45.42880000     -30.38730000     -70.56950000
S      -44.62630000     -32.53200000     -66.96950000
S      -45.70020000     -30.18320000     -68.87980000
H      -45.64680000     -29.57980000     -71.27600000
