40
Properties=species:S:1:pos:R:3 #=T CELL(abcABC):=T 1.889726e+02=T 90.00000=T Traj:=T positionsangstrom=T Step:=T 0=T Bead:=T pbc="F F F"
C      -48.30790000     -34.55660000     -73.30330000
C      -47.15630000     -34.18860000     -73.98230000
C      -46.00320000     -34.98570000     -74.03350000
C      -46.06600000     -36.27430000     -73.52360000
C      -47.33360000     -36.76920000     -73.07040000
C      -48.43220000     -35.90700000     -72.85070000
H      -49.15350000     -33.77650000     -73.28990000
H      -45.13840000     -34.48940000     -74.42710000
H      -47.39310000     -37.83470000     -72.83100000
H      -49.34890000     -36.27320000     -72.34390000
C      -44.87330000     -37.20170000     -73.33960000
H      -44.46710000     -37.64420000     -74.26590000
H      -45.19950000     -38.03320000     -72.72580000
C      -47.01380000     -32.76560000     -74.60990000
H      -46.15810000     -32.74930000     -75.31870000
H      -47.89560000     -32.57790000     -75.12810000
S      -43.49100000     -36.43240000     -72.26820000
S      -46.81390000     -31.29150000     -73.49840000
C      -44.39600000     -35.31800000     -71.02060000
H      -45.15410000     -34.83420000     -71.55320000
H      -44.84540000     -35.92210000     -70.20090000
C      -44.91970000     -31.10840000     -73.29060000
H      -44.86270000     -30.06010000     -73.01200000
H      -44.32280000     -31.32610000     -74.23100000
C      -44.39540000     -32.04140000     -72.13830000
H      -44.71930000     -33.08060000     -72.28970000
H      -43.29940000     -31.97310000     -72.16050000
C      -43.24790000     -34.51190000     -70.33100000
H      -42.58780000     -33.97370000     -71.04490000
H      -42.55740000     -35.21620000     -69.86030000
C      -43.77050000     -33.54540000     -69.26480000
C      -43.71770000     -33.79830000     -67.90790000
C      -44.26990000     -32.21420000     -69.55010000
H      -43.64450000     -34.76630000     -67.44300000
C      -44.49890000     -31.46880000     -68.39470000
C      -44.77480000     -31.56110000     -70.73990000
C      -45.38360000     -30.33470000     -70.43300000
S      -44.28600000     -32.45030000     -66.94470000
S      -45.46720000     -30.05690000     -68.71470000
H      -45.88920000     -29.65350000     -71.06120000
