40
Properties=species:S:1:pos:R:3 #=T CELL(abcABC):=T 1.889726e+02=T 90.00000=T Traj:=T positionsangstrom=T Step:=T 0=T Bead:=T pbc="F F F"
C      -42.16700000     -34.77240000     -70.37770000
C      -42.44390000     -33.69320000     -69.57140000
C      -42.43550000     -32.39280000     -70.19710000
C      -42.17580000     -32.15960000     -71.58880000
C      -41.77620000     -33.34350000     -72.26510000
C      -41.74880000     -34.60180000     -71.69470000
H      -42.22670000     -35.86670000     -69.97690000
H      -42.80380000     -31.51010000     -69.58450000
H      -41.50470000     -33.28250000     -73.30880000
H      -41.54760000     -35.48470000     -72.30760000
C      -42.34450000     -30.88670000     -72.27760000
H      -41.95240000     -31.02460000     -73.33220000
H      -41.81040000     -30.11960000     -71.82280000
C      -42.74350000     -33.80960000     -68.15940000
H      -42.63990000     -34.82680000     -67.75980000
H      -41.92770000     -33.21180000     -67.58320000
S      -44.05150000     -30.20550000     -72.32160000
S      -44.27980000     -32.85400000     -67.60600000
C      -45.01360000     -31.61350000     -73.06460000
H      -44.82510000     -31.64790000     -74.18100000
H      -44.64110000     -32.56960000     -72.62620000
C      -45.62190000     -33.85610000     -68.51200000
H      -46.40820000     -33.92550000     -67.73980000
H      -45.30740000     -34.92430000     -68.62980000
C      -46.09930000     -33.24030000     -69.81960000
H      -46.71330000     -32.34830000     -69.51720000
H      -45.20220000     -32.82550000     -70.34550000
C      -46.49460000     -31.51160000     -72.72890000
H      -46.78810000     -30.73920000     -73.36980000
H      -46.65010000     -31.14970000     -71.71610000
C      -47.27460000     -32.80230000     -72.99100000
C      -47.73410000     -33.14600000     -74.22000000
C      -47.36740000     -33.86210000     -72.02160000
H      -47.77170000     -32.47360000     -75.05370000
C      -48.14020000     -34.93850000     -72.56880000
C      -46.95380000     -34.16200000     -70.68450000
C      -47.57290000     -35.32080000     -70.21240000
S      -48.50660000     -34.76450000     -74.20640000
S      -48.46720000     -36.21320000     -71.38790000
H      -47.38890000     -35.71790000     -69.23410000
