40
Properties=species:S:1:pos:R:3 #=T CELL(abcABC):=T 1.889726e+02=T 90.00000=T Traj:=T positionsangstrom=T Step:=T 0=T Bead:=T pbc="F F F"
C      -41.99340000     -34.66850000     -70.40080000
C      -42.50260000     -33.64030000     -69.63130000
C      -42.68020000     -32.37200000     -70.17640000
C      -42.20070000     -32.15110000     -71.46210000
C      -41.82170000     -33.25960000     -72.25150000
C      -41.62440000     -34.48950000     -71.71070000
H      -41.82250000     -35.64730000     -69.86730000
H      -43.09790000     -31.52490000     -69.46820000
H      -41.45360000     -32.98930000     -73.23160000
H      -41.19470000     -35.30910000     -72.25900000
C      -42.14360000     -30.76820000     -72.08110000
H      -41.63240000     -30.78900000     -73.04050000
H      -41.64810000     -29.93130000     -71.53780000
C      -42.84510000     -33.82820000     -68.12700000
H      -42.84750000     -34.89240000     -67.96310000
H      -42.10230000     -33.35080000     -67.47150000
S      -44.01070000     -30.18130000     -72.24960000
S      -44.50230000     -33.11100000     -67.60500000
C      -44.91160000     -31.77710000     -72.61740000
H      -44.55930000     -32.28050000     -73.43640000
H      -44.68020000     -32.40700000     -71.74160000
C      -45.59980000     -34.00630000     -68.72150000
H      -46.32610000     -34.43410000     -68.04390000
H      -45.13900000     -34.79290000     -69.31770000
C      -46.39260000     -33.15290000     -69.72610000
H      -47.18600000     -32.63600000     -69.32720000
H      -45.69570000     -32.41660000     -70.21950000
C      -46.38390000     -31.44590000     -72.78900000
H      -46.54970000     -30.90820000     -73.74030000
H      -46.72500000     -30.77100000     -71.95470000
C      -47.23560000     -32.76190000     -73.04680000
C      -47.72360000     -33.14240000     -74.26610000
C      -47.44810000     -33.78720000     -72.06210000
H      -47.68340000     -32.46840000     -75.07640000
C      -48.12140000     -34.93270000     -72.66560000
C      -47.01470000     -34.10180000     -70.71620000
C      -47.48980000     -35.33130000     -70.22790000
S      -48.57390000     -34.64360000     -74.27600000
S      -48.22210000     -36.29990000     -71.53160000
H      -47.33480000     -35.69290000     -69.21620000
