40
Properties=species:S:1:pos:R:3 #=T CELL(abcABC):=T 1.889726e+02=T 90.00000=T Traj:=T positionsangstrom=T Step:=T 0=T Bead:=T pbc="F F F"
C      -41.93230000     -34.68310000     -70.39250000
C      -42.48460000     -33.65810000     -69.57960000
C      -42.53420000     -32.36210000     -70.06890000
C      -42.13760000     -32.06600000     -71.41420000
C      -41.67050000     -33.13950000     -72.20870000
C      -41.60600000     -34.45620000     -71.70200000
H      -41.97320000     -35.67570000     -70.01750000
H      -42.98320000     -31.57360000     -69.43120000
H      -41.52620000     -33.03130000     -73.27010000
H      -41.23320000     -35.29150000     -72.28920000
C      -42.34860000     -30.62350000     -71.98450000
H      -41.80970000     -30.57950000     -72.91770000
H      -42.00600000     -29.83320000     -71.20270000
C      -42.80290000     -33.93290000     -68.18240000
H      -42.99800000     -35.04550000     -67.94200000
H      -42.04060000     -33.65910000     -67.50660000
S      -44.10910000     -30.07250000     -72.19240000
S      -44.43420000     -33.15390000     -67.62970000
C      -44.87610000     -31.69970000     -72.62620000
H      -44.54530000     -32.18580000     -73.56290000
H      -44.61410000     -32.43680000     -71.84230000
C      -45.67410000     -34.13000000     -68.59560000
H      -46.29690000     -34.68400000     -67.90470000
H      -45.12000000     -34.94250000     -69.09990000
C      -46.57240000     -33.37720000     -69.56500000
H      -47.37920000     -32.77470000     -69.01980000
H      -46.04280000     -32.52430000     -70.09790000
C      -46.39620000     -31.44300000     -72.59640000
H      -46.53330000     -30.70610000     -73.36510000
H      -46.70670000     -30.97710000     -71.67960000
C      -47.24300000     -32.73060000     -72.94190000
C      -47.76760000     -32.89500000     -74.18240000
C      -47.36410000     -33.87400000     -72.10020000
H      -47.58590000     -32.25510000     -75.02870000
C      -47.96020000     -34.91580000     -72.75820000
C      -47.12000000     -34.24360000     -70.66210000
C      -47.65070000     -35.48850000     -70.35140000
S      -48.38350000     -34.57780000     -74.42490000
S      -48.33400000     -36.36340000     -71.74520000
H      -47.72370000     -36.02330000     -69.37560000
