40
Properties=species:S:1:pos:R:3 #=T CELL(abcABC):=T 1.889726e+02=T 90.00000=T Traj:=T positionsangstrom=T Step:=T 0=T Bead:=T pbc="F F F"
C      -46.45280000     -36.85150000     -72.19310000
C      -47.39810000     -35.86560000     -71.89310000
C      -47.51480000     -35.33330000     -70.61980000
C      -46.56750000     -35.72440000     -69.63830000
C      -45.48040000     -36.54350000     -70.04330000
C      -45.46200000     -37.17970000     -71.28840000
H      -46.45430000     -37.19990000     -73.20870000
H      -48.41690000     -34.74920000     -70.34810000
H      -44.66130000     -36.81090000     -69.39770000
H      -44.74640000     -37.97420000     -71.53260000
C      -46.75040000     -35.38880000     -68.20490000
H      -45.78650000     -35.65120000     -67.71760000
H      -47.37610000     -36.02470000     -67.62130000
C      -48.42070000     -35.62230000     -72.94610000
H      -48.65530000     -36.50540000     -73.56440000
H      -49.38320000     -35.20330000     -72.39760000
S      -47.20620000     -33.54660000     -67.77020000
S      -47.68860000     -34.38670000     -74.10640000
C      -45.73990000     -32.53160000     -68.43880000
H      -45.80950000     -31.51480000     -67.98970000
H      -44.87240000     -32.90080000     -68.06900000
C      -46.49740000     -33.33230000     -73.12970000
H      -46.91650000     -33.26560000     -72.08820000
H      -46.46680000     -32.33780000     -73.57100000
C      -45.07330000     -33.84920000     -73.17080000
H      -44.89510000     -34.64490000     -72.36540000
H      -44.75570000     -34.30710000     -74.10150000
C      -45.81840000     -32.38290000     -69.91780000
H      -46.74410000     -31.84380000     -70.29870000
H      -45.81580000     -33.41140000     -70.33510000
C      -44.54900000     -31.67650000     -70.46610000
C      -43.99530000     -30.66820000     -69.71610000
C      -43.93570000     -31.82230000     -71.80480000
H      -44.25160000     -30.30350000     -68.72680000
C      -42.82560000     -30.98710000     -71.94510000
C      -44.04220000     -32.70280000     -72.97430000
C      -43.03240000     -32.53160000     -73.88160000
S      -42.53410000     -30.00640000     -70.54280000
S      -41.87030000     -31.26600000     -73.35730000
H      -42.91300000     -33.05540000     -74.79200000
