40
Properties=species:S:1:pos:R:3 #=T CELL(abcABC):=T 1.889726e+02=T 90.00000=T Traj:=T positionsangstrom=T Step:=T 0=T Bead:=T pbc="F F F"
C      -42.88040000     -32.20680000     -70.87110000
C      -43.11380000     -32.91650000     -69.69150000
C      -43.08090000     -34.28440000     -69.61070000
C      -42.96690000     -35.04570000     -70.77810000
C      -42.61870000     -34.37880000     -71.89930000
C      -42.64570000     -32.97230000     -72.02510000
H      -43.20590000     -31.17530000     -71.01210000
H      -43.17130000     -34.67100000     -68.61560000
H      -42.58560000     -35.01820000     -72.78520000
H      -42.37530000     -32.53470000     -73.03490000
C      -43.16830000     -36.57330000     -70.72720000
H      -42.71010000     -36.84530000     -69.77980000
H      -42.71820000     -37.07050000     -71.52860000
C      -43.37230000     -32.19970000     -68.33770000
H      -42.57260000     -32.52030000     -67.59320000
H      -43.13750000     -31.13420000     -68.42570000
S      -44.87740000     -37.25640000     -70.34030000
S      -45.07810000     -32.41430000     -67.66360000
C      -45.79280000     -36.48230000     -71.73610000
H      -45.07430000     -36.45550000     -72.69040000
H      -46.60660000     -37.15380000     -71.97450000
C      -46.01270000     -31.42680000     -68.90740000
H      -45.32680000     -30.80810000     -69.48230000
H      -46.63580000     -30.70570000     -68.36530000
C      -46.96530000     -32.28290000     -69.76830000
H      -46.62880000     -33.29450000     -69.65450000
H      -47.96540000     -32.21760000     -69.36370000
C      -46.12060000     -35.00010000     -71.42120000
H      -45.16540000     -34.67290000     -71.09890000
H      -46.90160000     -34.81140000     -70.67630000
C      -46.47880000     -34.17000000     -72.62890000
C      -46.53110000     -34.48910000     -73.95370000
C      -46.85320000     -32.77180000     -72.38410000
H      -46.24410000     -35.43020000     -74.38810000
C      -46.85510000     -32.01940000     -73.55940000
C      -46.93580000     -31.89990000     -71.22100000
C      -46.97390000     -30.59260000     -71.66150000
S      -46.82310000     -33.01450000     -74.99590000
S      -47.05640000     -30.35730000     -73.39490000
H      -47.01170000     -29.71300000     -70.97630000
