40
Properties=species:S:1:pos:R:3 #=T CELL(abcABC):=T 1.889726e+02=T 90.00000=T Traj:=T positionsangstrom=T Step:=T 0=T Bead:=T pbc="F F F"
C      -44.25330000     -34.63260000     -67.42080000
C      -44.81990000     -33.37010000     -67.71470000
C      -44.09180000     -32.36820000     -68.38840000
C      -42.79380000     -32.63720000     -68.81670000
C      -42.29140000     -33.89150000     -68.55430000
C      -42.98100000     -34.88370000     -67.85540000
H      -44.91900000     -35.39810000     -66.94340000
H      -44.55080000     -31.40980000     -68.65770000
H      -41.35380000     -34.21160000     -68.91050000
H      -42.53630000     -35.80530000     -67.58620000
C      -42.06530000     -31.61230000     -69.67600000
H      -40.99510000     -31.56970000     -69.55000000
H      -42.48920000     -30.67170000     -69.45680000
C      -46.25770000     -33.22310000     -67.27990000
H      -46.49170000     -33.46690000     -66.23120000
H      -46.59150000     -32.16330000     -67.38050000
S      -42.23700000     -31.88070000     -71.53070000
S      -47.45780000     -34.35340000     -68.20080000
C      -43.71870000     -30.96490000     -71.96110000
H      -43.86790000     -30.20700000     -71.16610000
H      -43.58540000     -30.40100000     -72.92710000
C      -46.82780000     -34.42510000     -69.96780000
H      -46.66450000     -35.51200000     -70.31820000
H      -45.75310000     -33.94410000     -69.92890000
C      -47.64220000     -33.57160000     -70.98320000
H      -48.72170000     -33.62650000     -70.79770000
H      -47.44240000     -32.55100000     -70.85180000
C      -44.93970000     -31.87460000     -71.97460000
H      -45.87090000     -31.26860000     -71.78100000
H      -44.86080000     -32.63920000     -71.15170000
C      -45.26930000     -32.60980000     -73.27240000
C      -44.68910000     -32.32720000     -74.49920000
C      -46.40670000     -33.50790000     -73.36610000
H      -43.76540000     -31.73830000     -74.65740000
C      -46.51540000     -34.00860000     -74.63490000
C      -47.46340000     -33.87610000     -72.41470000
C      -48.32410000     -34.76370000     -73.00590000
S      -45.33270000     -33.37080000     -75.76690000
S      -47.94970000     -35.07310000     -74.74720000
H      -49.22840000     -35.32580000     -72.61110000
