40
Properties=species:S:1:pos:R:3 #=T CELL(abcABC):=T 1.889726e+02=T 90.00000=T Traj:=T positionsangstrom=T Step:=T 0=T Bead:=T pbc="F F F"
C      -45.87700000     -37.03920000     -72.55640000
C      -46.89180000     -36.10820000     -72.51530000
C      -47.37860000     -35.70530000     -71.26300000
C      -46.79320000     -36.13190000     -70.11210000
C      -45.80940000     -37.09800000     -70.16860000
C      -45.35700000     -37.58420000     -71.39350000
H      -45.50870000     -37.40970000     -73.52410000
H      -48.20070000     -34.99090000     -71.16670000
H      -45.54470000     -37.54970000     -69.24260000
H      -44.64090000     -38.40510000     -71.42650000
C      -47.33480000     -35.84270000     -68.70590000
H      -46.73410000     -36.00020000     -67.85790000
H      -48.25990000     -36.40810000     -68.53290000
C      -47.52350000     -35.49310000     -73.68240000
H      -47.92520000     -36.26730000     -74.36880000
H      -48.33100000     -34.75850000     -73.47030000
S      -47.98730000     -34.04680000     -68.36900000
S      -46.31690000     -34.59240000     -74.77220000
C      -46.54990000     -32.89370000     -68.43370000
H      -47.00720000     -31.89110000     -68.30100000
H      -45.76190000     -33.06840000     -67.64600000
C      -45.79010000     -33.27390000     -73.63890000
H      -46.63140000     -33.19420000     -72.89200000
H      -45.64940000     -32.41690000     -74.29510000
C      -44.47720000     -33.58740000     -72.98290000
H      -44.65560000     -34.33360000     -72.14080000
H      -43.83300000     -34.11580000     -73.77100000
C      -45.73770000     -32.95340000     -69.78540000
H      -46.39440000     -32.98440000     -70.71700000
H      -45.20470000     -33.96190000     -69.79030000
C      -44.70330000     -31.82310000     -70.04070000
C      -44.48720000     -30.83890000     -69.18710000
C      -43.86230000     -31.69670000     -71.21660000
H      -45.11660000     -30.74540000     -68.26730000
C      -42.98260000     -30.60300000     -71.14530000
C      -43.72090000     -32.32750000     -72.49410000
C      -42.87170000     -31.69070000     -73.36400000
S      -43.35280000     -29.59370000     -69.74600000
S      -42.19480000     -30.25160000     -72.61770000
H      -42.71570000     -31.91940000     -74.42780000
