40
Properties=species:S:1:pos:R:3 #=T CELL(abcABC):=T 1.889726e+02=T 90.00000=T Traj:=T positionsangstrom=T Step:=T 0=T Bead:=T pbc="F F F"
C      -42.73040000     -32.27850000     -70.53990000
C      -42.85260000     -33.12100000     -69.36770000
C      -42.99040000     -34.52220000     -69.49970000
C      -43.02080000     -35.07070000     -70.81030000
C      -42.97360000     -34.25340000     -71.93950000
C      -42.84460000     -32.81760000     -71.87430000
H      -42.56620000     -31.23640000     -70.42840000
H      -43.01590000     -35.09520000     -68.62510000
H      -42.98470000     -34.59260000     -72.97210000
H      -42.72210000     -32.17370000     -72.77410000
C      -43.08580000     -36.60020000     -70.88410000
H      -42.64960000     -36.97800000     -69.91280000
H      -42.48750000     -36.91070000     -71.74070000
C      -42.87730000     -32.41240000     -68.02240000
H      -42.24840000     -32.93190000     -67.20110000
H      -42.62040000     -31.36480000     -68.09190000
S      -44.83880000     -37.32330000     -70.87220000
S      -44.64000000     -32.28550000     -67.50180000
C      -45.83090000     -36.43740000     -72.21120000
H      -45.07740000     -36.22790000     -72.92310000
H      -46.61790000     -37.06930000     -72.62170000
C      -45.42510000     -31.35810000     -68.86900000
H      -44.73410000     -30.73140000     -69.41040000
H      -46.19440000     -30.66780000     -68.56780000
C      -46.10320000     -32.34430000     -69.84390000
H      -45.41700000     -33.16260000     -69.86770000
H      -47.01990000     -32.78150000     -69.40530000
C      -46.40370000     -35.22630000     -71.65490000
H      -45.60730000     -34.78630000     -71.03900000
H      -47.17720000     -35.46900000     -70.96790000
C      -46.78190000     -34.16450000     -72.67230000
C      -46.97200000     -34.46720000     -73.99370000
C      -46.79640000     -32.69290000     -72.41830000
H      -47.06940000     -35.44310000     -74.52670000
C      -47.13070000     -31.94610000     -73.56250000
C      -46.60840000     -31.83950000     -71.21270000
C      -47.05850000     -30.53770000     -71.47290000
S      -47.31150000     -32.98970000     -74.95380000
S      -47.46970000     -30.27110000     -73.17550000
H      -46.80030000     -29.61860000     -70.88230000
