40
Properties=species:S:1:pos:R:3 #=T CELL(abcABC):=T 1.889726e+02=T 90.00000=T Traj:=T positionsangstrom=T Step:=T 0=T Bead:=T pbc="F F F"
C      -42.66450000     -32.31970000     -70.60160000
C      -42.95550000     -33.09260000     -69.48850000
C      -43.06080000     -34.49470000     -69.59640000
C      -42.93800000     -35.07540000     -70.84190000
C      -42.70570000     -34.36000000     -71.98840000
C      -42.53570000     -32.96390000     -71.85370000
H      -42.39760000     -31.26640000     -70.51240000
H      -43.38800000     -35.11030000     -68.72830000
H      -42.36640000     -34.77950000     -72.93600000
H      -42.48330000     -32.28190000     -72.66850000
C      -43.01480000     -36.58060000     -71.06470000
H      -42.30950000     -37.13780000     -70.52300000
H      -42.83120000     -36.82090000     -72.13390000
C      -43.04090000     -32.53950000     -68.09000000
H      -42.63150000     -33.28930000     -67.42240000
H      -42.40190000     -31.69370000     -67.91130000
S      -44.73420000     -37.30400000     -70.70180000
S      -44.78540000     -32.24100000     -67.47850000
C      -45.68500000     -36.45140000     -72.10770000
H      -44.89440000     -36.24380000     -72.90850000
H      -46.42680000     -37.19140000     -72.50460000
C      -45.63390000     -31.38700000     -68.91160000
H      -44.84230000     -31.00040000     -69.53830000
H      -46.29200000     -30.64670000     -68.45220000
C      -46.27710000     -32.43780000     -69.86480000
H      -45.66840000     -33.35660000     -69.95200000
H      -47.24690000     -32.72440000     -69.36470000
C      -46.38510000     -35.23770000     -71.69610000
H      -45.78480000     -34.76380000     -70.88340000
H      -47.29870000     -35.52000000     -71.13190000
C      -46.80130000     -34.11860000     -72.68120000
C      -46.87720000     -34.31550000     -74.01140000
C      -46.84750000     -32.71910000     -72.36910000
H      -46.63950000     -35.27730000     -74.44940000
C      -47.23930000     -31.94320000     -73.43240000
C      -46.65190000     -31.87080000     -71.22810000
C      -46.83790000     -30.51740000     -71.52360000
S      -47.49850000     -32.92350000     -74.91590000
S      -47.38410000     -30.22620000     -73.19050000
H      -46.56110000     -29.70650000     -70.84980000
