40
Properties=species:S:1:pos:R:3 #=T CELL(abcABC):=T 1.889726e+02=T 90.00000=T Traj:=T positionsangstrom=T Step:=T 0=T Bead:=T pbc="F F F"
C      -46.00410000     -37.14710000     -72.79130000
C      -47.02520000     -36.21260000     -72.61990000
C      -47.34890000     -35.78430000     -71.25870000
C      -46.70610000     -36.33940000     -70.16330000
C      -45.78260000     -37.39030000     -70.32030000
C      -45.47880000     -37.84500000     -71.65400000
H      -45.59240000     -37.52210000     -73.74570000
H      -48.15310000     -34.99420000     -71.12420000
H      -45.50610000     -37.99820000     -69.45480000
H      -44.83320000     -38.67590000     -71.71380000
C      -47.12800000     -35.87620000     -68.71160000
H      -46.32060000     -36.04260000     -68.08040000
H      -48.00790000     -36.52360000     -68.30460000
C      -47.64550000     -35.55500000     -73.86360000
H      -47.86560000     -36.33760000     -74.63720000
H      -48.51160000     -34.97360000     -73.63860000
S      -47.87780000     -34.17580000     -68.62600000
S      -46.36280000     -34.40700000     -74.73250000
C      -46.58650000     -32.96910000     -68.70740000
H      -47.06060000     -31.97290000     -68.65260000
H      -45.98430000     -32.97400000     -67.78410000
C      -45.97360000     -32.96990000     -73.62400000
H      -46.70320000     -32.85970000     -72.83460000
H      -46.08220000     -32.03940000     -74.18080000
C      -44.58800000     -33.32400000     -73.02100000
H      -44.80780000     -34.03250000     -72.19920000
H      -44.09850000     -33.76830000     -73.78960000
C      -45.77420000     -32.94360000     -69.99330000
H      -46.51260000     -32.94280000     -70.82440000
H      -45.18040000     -33.86410000     -70.07240000
C      -44.81880000     -31.81750000     -70.02190000
C      -44.33430000     -31.08290000     -68.92900000
C      -44.02090000     -31.46660000     -71.25300000
H      -44.64340000     -31.27430000     -67.88110000
C      -43.09790000     -30.47180000     -70.97600000
C      -43.81900000     -32.07210000     -72.57790000
C      -42.89200000     -31.37850000     -73.30480000
S      -43.15310000     -29.90260000     -69.33300000
S      -42.11980000     -30.01690000     -72.35610000
H      -42.57430000     -31.59770000     -74.30150000
