40
Properties=species:S:1:pos:R:3 #=T CELL(abcABC):=T 1.889726e+02=T 90.00000=T Traj:=T positionsangstrom=T Step:=T 0=T Bead:=T pbc="F F F"
C      -43.90930000     -33.54920000     -69.44700000
C      -45.20940000     -33.05820000     -69.19200000
C      -46.31870000     -33.78690000     -69.41730000
C      -46.24110000     -35.11600000     -69.95880000
C      -44.99240000     -35.63460000     -70.23950000
C      -43.79800000     -34.83790000     -69.98090000
H      -43.03920000     -33.01600000     -69.11370000
H      -47.33260000     -33.30510000     -69.19030000
H      -44.74720000     -36.60200000     -70.55320000
H      -42.79020000     -35.26350000     -70.29190000
C      -47.47600000     -35.94450000     -70.24240000
H      -47.92160000     -36.32340000     -69.31370000
H      -47.15760000     -36.77350000     -70.84210000
C      -45.41900000     -31.70750000     -68.45820000
H      -46.40880000     -31.43780000     -68.32720000
H      -45.14140000     -31.84770000     -67.41230000
S      -48.91120000     -35.03890000     -70.93910000
S      -44.46460000     -30.32810000     -69.11230000
C      -48.46260000     -34.76220000     -72.73650000
H      -48.12160000     -35.72270000     -73.19460000
H      -49.41330000     -34.44310000     -73.23300000
C      -45.58370000     -29.83850000     -70.56420000
H      -45.06050000     -29.16010000     -71.05720000
H      -46.43150000     -29.29970000     -70.23570000
C      -45.96220000     -30.91890000     -71.58840000
H      -46.78450000     -31.50840000     -71.21990000
H      -46.51160000     -30.41370000     -72.39940000
C      -47.39130000     -33.65500000     -72.93920000
H      -47.64670000     -32.77240000     -72.35050000
H      -47.44260000     -33.28610000     -73.96160000
C      -45.92060000     -34.06760000     -72.86700000
C      -45.47800000     -35.22780000     -73.43000000
C      -44.88400000     -33.12000000     -72.51670000
H      -46.25920000     -35.90250000     -73.93100000
C      -43.65780000     -33.66110000     -72.87520000
C      -44.80050000     -31.73470000     -72.14050000
C      -43.48380000     -31.33180000     -72.26420000
S      -43.74580000     -35.32160000     -73.51480000
S      -42.31400000     -32.53980000     -72.72930000
H      -43.13300000     -30.38470000     -71.83790000
