40
Properties=species:S:1:pos:R:3 #=T CELL(abcABC):=T 1.889726e+02=T 90.00000=T Traj:=T positionsangstrom=T Step:=T 0=T Bead:=T pbc="F F F"
C      -44.12070000     -36.18730000     -68.93880000
C      -44.09480000     -34.96950000     -69.62370000
C      -45.07610000     -33.94720000     -69.24840000
C      -46.12190000     -34.23430000     -68.41140000
C      -46.15930000     -35.55740000     -67.78780000
C      -45.13620000     -36.49090000     -68.01180000
H      -43.31620000     -36.96590000     -69.04280000
H      -44.97380000     -32.89980000     -69.49370000
H      -47.00720000     -35.84060000     -67.19150000
H      -45.00220000     -37.36730000     -67.41780000
C      -47.05310000     -33.22400000     -67.86310000
H      -46.81900000     -32.96860000     -66.84190000
H      -48.15090000     -33.65210000     -67.86300000
C      -42.96820000     -34.61800000     -70.59210000
H      -43.21010000     -33.61980000     -70.97730000
H      -41.91760000     -34.52400000     -70.22860000
S      -47.09590000     -31.64180000     -68.75560000
S      -42.82950000     -35.80070000     -72.05040000
C      -48.30660000     -32.06540000     -70.07780000
H      -49.05440000     -32.69190000     -69.66560000
H      -48.82520000     -31.12350000     -70.36520000
C      -44.49950000     -36.28500000     -72.58190000
H      -44.92200000     -37.10630000     -72.01880000
H      -44.41880000     -36.60270000     -73.69090000
C      -45.52910000     -35.15130000     -72.46880000
H      -46.48550000     -35.53040000     -72.82270000
H      -45.66820000     -35.10370000     -71.39460000
C      -47.61300000     -32.80820000     -71.22420000
H      -48.38920000     -33.26970000     -71.82930000
H      -47.11220000     -33.60450000     -70.77690000
C      -46.67830000     -32.00700000     -72.12140000
C      -46.79430000     -30.61740000     -72.27430000
C      -45.65560000     -32.58540000     -72.96320000
H      -47.44540000     -29.86050000     -71.81670000
C      -45.04460000     -31.56860000     -73.67120000
C      -45.08010000     -33.92190000     -73.19370000
C      -44.01440000     -33.78380000     -74.10170000
S      -45.60190000     -29.99010000     -73.37710000
S      -43.71520000     -32.14970000     -74.58040000
H      -43.36380000     -34.55880000     -74.46970000
