40
Properties=species:S:1:pos:R:3 #=T CELL(abcABC):=T 1.889726e+02=T 90.00000=T Traj:=T positionsangstrom=T Step:=T 0=T Bead:=T pbc="F F F"
C      -44.46130000     -36.17530000     -68.99450000
C      -44.49740000     -34.92170000     -69.65660000
C      -45.37160000     -33.95050000     -69.16800000
C      -46.38810000     -34.22840000     -68.26090000
C      -46.41710000     -35.51240000     -67.73450000
C      -45.40690000     -36.43330000     -67.97630000
H      -43.79440000     -36.98820000     -69.27240000
H      -45.33590000     -32.97860000     -69.70780000
H      -47.17820000     -35.66730000     -66.99330000
H      -45.43060000     -37.38700000     -67.54600000
C      -47.26110000     -33.07490000     -67.73430000
H      -46.93580000     -32.71390000     -66.79350000
H      -48.20980000     -33.48750000     -67.58880000
C      -43.39770000     -34.45700000     -70.62620000
H      -43.71940000     -33.52290000     -71.08210000
H      -42.45880000     -34.12700000     -70.13080000
S      -47.35790000     -31.59850000     -68.81190000
S      -42.83510000     -35.69910000     -71.85830000
C      -48.29980000     -32.23120000     -70.33620000
H      -49.00210000     -32.96740000     -69.97090000
H      -48.76240000     -31.28170000     -70.74350000
C      -44.38370000     -36.20440000     -72.68650000
H      -44.67410000     -37.16880000     -72.16100000
H      -44.24550000     -36.54700000     -73.72020000
C      -45.41760000     -35.14470000     -72.66090000
H      -46.37610000     -35.55560000     -73.15170000
H      -45.77130000     -34.91740000     -71.67330000
C      -47.42650000     -32.91540000     -71.32990000
H      -48.07780000     -33.42590000     -72.05940000
H      -46.94580000     -33.73520000     -70.82800000
C      -46.35510000     -32.07490000     -72.05120000
C      -46.28800000     -30.67580000     -71.94860000
C      -45.42050000     -32.58050000     -72.96680000
H      -46.79910000     -29.85240000     -71.40910000
C      -44.75270000     -31.59330000     -73.65630000
C      -45.08010000     -33.89400000     -73.41020000
C      -44.27640000     -33.92060000     -74.49660000
S      -44.97490000     -30.04620000     -73.01270000
S      -43.66960000     -32.26080000     -74.81630000
H      -43.86600000     -34.66710000     -75.05710000
