40
Properties=species:S:1:pos:R:3 #=T CELL(abcABC):=T 1.889726e+02=T 90.00000=T Traj:=T positionsangstrom=T Step:=T 0=T Bead:=T pbc="F F F"
C      -44.66740000     -36.12750000     -69.09300000
C      -44.39090000     -34.81730000     -69.57040000
C      -45.19640000     -33.77720000     -69.07440000
C      -46.30650000     -34.02850000     -68.21620000
C      -46.59800000     -35.34700000     -67.87460000
C      -45.76840000     -36.37940000     -68.31210000
H      -44.18890000     -36.97200000     -69.57060000
H      -44.90150000     -32.76240000     -69.34540000
H      -47.45640000     -35.63650000     -67.28820000
H      -46.01690000     -37.40240000     -67.93920000
C      -47.19280000     -32.88810000     -67.68380000
H      -46.71190000     -32.62610000     -66.80690000
H      -48.15730000     -33.25870000     -67.35660000
C      -43.24430000     -34.54750000     -70.53430000
H      -43.43100000     -33.51470000     -70.92960000
H      -42.35030000     -34.57120000     -69.94310000
S      -47.32400000     -31.45740000     -68.77480000
S      -42.99630000     -35.81780000     -71.81070000
C      -48.18740000     -32.11000000     -70.26490000
H      -49.10650000     -32.68730000     -69.89750000
H      -48.52030000     -31.21410000     -70.81090000
C      -44.64360000     -36.29180000     -72.56100000
H      -45.14810000     -36.66070000     -71.70460000
H      -44.41420000     -37.06710000     -73.36830000
C      -45.68210000     -35.20720000     -73.06740000
H      -46.43630000     -35.77340000     -73.61670000
H      -46.15190000     -34.79150000     -72.06780000
C      -47.35750000     -33.01760000     -71.22760000
H      -48.05750000     -33.58140000     -71.84670000
H      -46.73490000     -33.69960000     -70.65300000
C      -46.39420000     -32.20400000     -72.10270000
C      -46.16330000     -30.85310000     -71.81430000
C      -45.52680000     -32.69450000     -73.17240000
H      -46.70200000     -30.28480000     -71.03820000
C      -44.67120000     -31.70130000     -73.61950000
C      -45.08340000     -33.97220000     -73.67200000
C      -44.09490000     -33.89960000     -74.62480000
S      -44.84040000     -30.18070000     -72.79530000
S      -43.56350000     -32.19000000     -74.83850000
H      -43.50580000     -34.65580000     -75.18520000
