40
Properties=species:S:1:pos:R:3 #=T CELL(abcABC):=T 1.889726e+02=T 90.00000=T Traj:=T positionsangstrom=T Step:=T 0=T Bead:=T pbc="F F F"
C      -41.91370000     -31.62140000     -69.47120000
C      -42.36650000     -32.80880000     -68.93460000
C      -42.28630000     -33.93150000     -69.70800000
C      -41.77430000     -33.79500000     -71.04750000
C      -41.23910000     -32.63200000     -71.54810000
C      -41.17530000     -31.53150000     -70.70530000
H      -41.91800000     -30.70610000     -68.87830000
H      -42.50470000     -34.91170000     -69.40250000
H      -40.71920000     -32.67880000     -72.53630000
H      -40.69890000     -30.63130000     -71.06880000
C      -41.80090000     -34.93480000     -72.03390000
H      -40.90650000     -35.59230000     -71.73640000
H      -41.68030000     -34.62510000     -73.05540000
C      -43.10540000     -32.86960000     -67.67520000
H      -42.63590000     -33.35020000     -66.76370000
H      -43.24780000     -31.82650000     -67.30010000
S      -43.38990000     -35.97900000     -71.98960000
S      -44.75820000     -33.57920000     -67.94820000
C      -44.57130000     -35.01350000     -73.01060000
H      -44.34930000     -33.96590000     -72.76990000
H      -44.34230000     -35.02460000     -74.05660000
C      -45.73120000     -32.41230000     -69.06180000
H      -45.40300000     -31.36010000     -68.93270000
H      -46.74370000     -32.34560000     -68.72240000
C      -45.71870000     -32.92260000     -70.55990000
H      -44.75690000     -32.61670000     -70.98720000
H      -45.74960000     -34.00090000     -70.53810000
C      -46.02880000     -35.46040000     -72.72880000
H      -46.13840000     -35.79290000     -71.68340000
H      -46.18670000     -36.34690000     -73.34360000
C      -47.10370000     -34.46180000     -73.06730000
C      -48.00850000     -34.75530000     -74.07150000
C      -47.44640000     -33.19930000     -72.42240000
H      -47.93110000     -35.62290000     -74.68400000
C      -48.68250000     -32.66470000     -72.88460000
C      -46.91610000     -32.52700000     -71.26920000
C      -47.57620000     -31.34300000     -71.05250000
S      -49.29390000     -33.53980000     -74.24140000
S      -49.01750000     -31.13780000     -72.01840000
H      -47.19930000     -30.57220000     -70.41990000
