40
Properties=species:S:1:pos:R:3 #=T CELL(abcABC):=T 1.889726e+02=T 90.00000=T Traj:=T positionsangstrom=T Step:=T 0=T Bead:=T pbc="F F F"
C      -42.39610000     -31.54010000     -69.43630000
C      -42.63280000     -32.89160000     -69.05200000
C      -42.50900000     -33.92950000     -70.00440000
C      -41.98320000     -33.60740000     -71.28390000
C      -41.62060000     -32.24150000     -71.56270000
C      -41.75800000     -31.24810000     -70.62570000
H      -42.56360000     -30.71160000     -68.76770000
H      -42.69590000     -34.90500000     -69.71840000
H      -40.98740000     -32.08110000     -72.52750000
H      -41.46830000     -30.25120000     -70.95450000
C      -41.64640000     -34.60780000     -72.31710000
H      -40.87150000     -35.26560000     -71.93540000
H      -41.29590000     -34.10310000     -73.23510000
C      -43.23330000     -33.15140000     -67.67660000
H      -42.59100000     -33.85210000     -67.13870000
H      -43.33800000     -32.21200000     -67.03160000
S      -43.01790000     -35.74190000     -72.61450000
S      -44.86780000     -33.96090000     -67.55030000
C      -44.53450000     -34.69930000     -73.03240000
H      -44.44970000     -33.77710000     -72.49230000
H      -44.45160000     -34.33590000     -74.08110000
C      -46.03310000     -32.89910000     -68.64330000
H      -45.73040000     -31.88050000     -68.49110000
H      -47.02110000     -33.05550000     -68.30470000
C      -45.86140000     -33.29570000     -70.09010000
H      -44.82750000     -33.04760000     -70.40860000
H      -45.87330000     -34.35450000     -70.25950000
C      -45.84230000     -35.40030000     -72.71160000
H      -45.85520000     -35.58370000     -71.64250000
H      -45.86300000     -36.44900000     -73.24110000
C      -47.00190000     -34.45150000     -73.06950000
C      -47.77120000     -34.57950000     -74.22280000
C      -47.43960000     -33.40270000     -72.24720000
H      -47.68000000     -35.38880000     -74.92090000
C      -48.52410000     -32.64890000     -72.77400000
C      -46.95240000     -32.75570000     -71.06620000
C      -47.55860000     -31.57160000     -70.80300000
S      -49.02840000     -33.38180000     -74.31730000
S      -48.79060000     -31.13010000     -72.00930000
H      -47.47630000     -30.94580000     -69.93950000
