40
Properties=species:S:1:pos:R:3 #=T CELL(abcABC):=T 1.889726e+02=T 90.00000=T Traj:=T positionsangstrom=T Step:=T 0=T Bead:=T pbc="F F F"
C      -42.67060000     -31.36680000     -69.50900000
C      -42.66660000     -32.69980000     -69.01970000
C      -42.41390000     -33.75130000     -69.92330000
C      -42.10160000     -33.44610000     -71.29590000
C      -42.11990000     -32.08230000     -71.76580000
C      -42.47730000     -31.04700000     -70.84930000
H      -42.83290000     -30.57290000     -68.76350000
H      -42.41420000     -34.81850000     -69.56390000
H      -41.92660000     -31.89140000     -72.79980000
H      -42.39590000     -30.04900000     -71.17220000
C      -41.77410000     -34.59730000     -72.24600000
H      -40.80420000     -35.12590000     -72.05850000
H      -41.76450000     -34.22000000     -73.30420000
C      -43.08410000     -33.06470000     -67.62310000
H      -42.27730000     -33.72890000     -67.12950000
H      -43.21550000     -32.17230000     -67.00840000
S      -43.16420000     -35.79310000     -72.22100000
S      -44.65130000     -33.96110000     -67.55650000
C      -44.36180000     -34.75480000     -73.28240000
H      -44.32190000     -33.68950000     -72.89410000
H      -44.13100000     -34.95100000     -74.30940000
C      -45.66870000     -32.86190000     -68.78290000
H      -45.29150000     -31.91600000     -68.68910000
H      -46.67550000     -32.83050000     -68.43610000
C      -45.72700000     -33.51400000     -70.16980000
H      -44.74490000     -33.37300000     -70.62030000
H      -45.81090000     -34.65030000     -70.16550000
C      -45.77390000     -35.39350000     -72.96830000
H      -45.84220000     -35.59320000     -71.84840000
H      -45.82640000     -36.35400000     -73.36550000
C      -46.97930000     -34.46350000     -73.23530000
C      -47.68030000     -34.41880000     -74.44730000
C      -47.32410000     -33.40080000     -72.35290000
H      -47.47300000     -34.98380000     -75.33280000
C      -48.32330000     -32.59440000     -72.88800000
C      -46.88190000     -32.97800000     -71.02540000
C      -47.58700000     -31.93630000     -70.58090000
S      -48.83050000     -33.15290000     -74.42820000
S      -48.93440000     -31.50720000     -71.71970000
H      -47.46360000     -31.48630000     -69.58640000
