40
Properties=species:S:1:pos:R:3 #=T CELL(abcABC):=T 1.889726e+02=T 90.00000=T Traj:=T positionsangstrom=T Step:=T 0=T Bead:=T pbc="F F F"
C      -42.94930000     -31.25460000     -69.66600000
C      -42.80520000     -32.54030000     -69.09610000
C      -42.12190000     -33.57770000     -69.81980000
C      -41.90080000     -33.41240000     -71.21690000
C      -42.25850000     -32.18410000     -71.84590000
C      -42.69200000     -31.07880000     -71.08500000
H      -43.13010000     -30.30530000     -69.13960000
H      -41.96190000     -34.56030000     -69.36680000
H      -42.03260000     -32.05240000     -72.91400000
H      -42.88210000     -30.07450000     -71.52160000
C      -41.54790000     -34.56530000     -72.04140000
H      -40.79220000     -35.17640000     -71.56390000
H      -41.15420000     -34.22870000     -73.07190000
C      -43.21190000     -32.70780000     -67.66390000
H      -42.42420000     -33.16960000     -67.06730000
H      -43.50960000     -31.73690000     -67.21630000
S      -43.04060000     -35.73860000     -72.32820000
S      -44.50870000     -33.96860000     -67.61240000
C      -44.30200000     -34.75120000     -73.19620000
H      -44.33060000     -33.74320000     -72.79550000
H      -44.04170000     -34.65940000     -74.33640000
C      -45.86570000     -33.16120000     -68.58740000
H      -45.63550000     -32.07850000     -68.65180000
H      -46.79020000     -33.21270000     -68.09840000
C      -45.98610000     -33.89580000     -70.00530000
H      -44.97990000     -33.65130000     -70.39160000
H      -46.25220000     -34.92640000     -69.97940000
C      -45.70310000     -35.34570000     -72.98580000
H      -45.75700000     -35.81190000     -72.02500000
H      -45.78640000     -36.21090000     -73.73030000
C      -46.76470000     -34.34600000     -73.28360000
C      -47.40650000     -34.25340000     -74.52170000
C      -47.39330000     -33.50710000     -72.28740000
H      -47.05990000     -34.57810000     -75.49540000
C      -48.35620000     -32.64850000     -72.83090000
C      -47.10010000     -33.14850000     -70.86520000
C      -48.03440000     -32.29700000     -70.37070000
S      -48.58670000     -32.95270000     -74.57980000
S      -49.10490000     -31.65660000     -71.63480000
H      -48.14880000     -31.71950000     -69.47710000
