40
Properties=species:S:1:pos:R:3 #=T CELL(abcABC):=T 1.889726e+02=T 90.00000=T Traj:=T positionsangstrom=T Step:=T 0=T Bead:=T pbc="F F F"
C      -43.26690000     -31.04040000     -70.17090000
C      -43.24630000     -32.27380000     -69.44760000
C      -42.53860000     -33.38670000     -69.97780000
C      -42.00800000     -33.29560000     -71.24840000
C      -42.05670000     -32.05180000     -71.98000000
C      -42.67160000     -30.93520000     -71.41300000
H      -43.46210000     -30.16740000     -69.59540000
H      -42.50950000     -34.29990000     -69.30730000
H      -41.47500000     -31.91940000     -72.84600000
H      -42.61790000     -29.98730000     -71.97370000
C      -41.32320000     -34.52300000     -71.95890000
H      -40.66260000     -34.98310000     -71.27790000
H      -40.77770000     -34.13800000     -72.75700000
C      -43.66440000     -32.33320000     -68.01310000
H      -42.70630000     -32.28290000     -67.45390000
H      -44.23730000     -31.35550000     -67.89000000
S      -42.70400000     -35.76640000     -72.55090000
S      -44.68870000     -33.74140000     -67.34000000
C      -44.04200000     -34.54350000     -72.99870000
H      -44.06920000     -33.80640000     -72.23490000
H      -43.81070000     -34.14200000     -74.02210000
C      -46.26360000     -33.53540000     -68.37690000
H      -46.75290000     -32.58580000     -68.22850000
H      -46.99440000     -34.19520000     -67.90360000
C      -46.11470000     -33.94210000     -69.80990000
H      -45.21680000     -33.53770000     -70.32550000
H      -45.98150000     -35.03280000     -70.02870000
C      -45.36970000     -35.28860000     -72.83740000
H      -45.51360000     -35.55510000     -71.79110000
H      -45.39090000     -36.14090000     -73.45840000
C      -46.59980000     -34.44920000     -73.10020000
C      -47.08770000     -34.31110000     -74.40320000
C      -47.34080000     -33.57760000     -72.18800000
H      -46.74790000     -34.84450000     -75.32070000
C      -48.30640000     -32.80950000     -72.81050000
C      -47.24390000     -33.43030000     -70.74980000
C      -48.18630000     -32.53570000     -70.32200000
S      -48.34080000     -33.13550000     -74.55190000
S      -49.13650000     -31.84780000     -71.58440000
H      -48.44650000     -32.28450000     -69.29070000
