40
Properties=species:S:1:pos:R:3 #=T CELL(abcABC):=T 1.889726e+02=T 90.00000=T Traj:=T positionsangstrom=T Step:=T 0=T Bead:=T pbc="F F F"
C      -44.10890000     -35.22310000     -67.97700000
C      -45.40120000     -34.82280000     -68.37200000
C      -46.08050000     -35.65700000     -69.31950000
C      -45.51130000     -36.84210000     -69.77530000
C      -44.22860000     -37.25740000     -69.29350000
C      -43.58870000     -36.46440000     -68.30640000
H      -43.64350000     -34.64330000     -67.22780000
H      -46.98990000     -35.48580000     -69.80390000
H      -43.86510000     -38.21460000     -69.58270000
H      -42.69170000     -36.80830000     -67.98570000
C      -46.13410000     -37.42820000     -70.97000000
H      -47.16050000     -36.94500000     -71.14080000
H      -46.27530000     -38.57380000     -70.93150000
C      -46.02540000     -33.57620000     -67.84020000
H      -47.10660000     -33.61370000     -67.81450000
H      -45.67340000     -33.49460000     -66.82330000
S      -45.12490000     -36.98890000     -72.47840000
S      -45.51600000     -32.08650000     -68.97430000
C      -45.94460000     -35.36000000     -72.75930000
H      -46.79960000     -35.63230000     -73.34670000
H      -46.33870000     -34.96320000     -71.84630000
C      -43.71040000     -32.10760000     -69.45950000
H      -43.18100000     -32.88130000     -68.89220000
H      -43.49940000     -31.08700000     -69.23770000
C      -43.52710000     -32.46180000     -70.93480000
H      -42.49310000     -32.40260000     -71.19780000
H      -43.99330000     -33.48710000     -71.18740000
C      -44.98330000     -34.31130000     -73.39180000
H      -44.78840000     -34.53070000     -74.44640000
H      -44.15800000     -34.23230000     -72.74310000
C      -45.70490000     -32.94360000     -73.59470000
C      -46.69860000     -32.63040000     -74.45830000
C      -45.22210000     -31.78300000     -72.85710000
H      -47.17010000     -33.33760000     -75.12980000
C      -45.84040000     -30.61220000     -73.29330000
C      -44.22930000     -31.44370000     -71.80870000
C      -44.15800000     -30.07690000     -71.59100000
S      -47.09450000     -30.92550000     -74.45150000
S      -45.34590000     -29.12570000     -72.47340000
H      -43.56250000     -29.79160000     -70.75740000
