40
Properties=species:S:1:pos:R:3 #=T CELL(abcABC):=T 1.889726e+02=T 90.00000=T Traj:=T positionsangstrom=T Step:=T 0=T Bead:=T pbc="F F F"
C      -43.12820000     -30.90600000     -70.02300000
C      -43.19460000     -32.11890000     -69.33860000
C      -42.62680000     -33.30940000     -69.84420000
C      -42.06050000     -33.28930000     -71.14190000
C      -42.11110000     -32.06410000     -71.87310000
C      -42.59310000     -30.89880000     -71.34790000
H      -43.73230000     -30.02650000     -69.61030000
H      -42.71540000     -34.31190000     -69.29830000
H      -41.75340000     -31.98440000     -72.91820000
H      -42.88910000     -30.00160000     -71.95730000
C      -41.46740000     -34.50910000     -71.71120000
H      -40.92380000     -35.20280000     -71.02800000
H      -40.64200000     -34.26140000     -72.47920000
C      -43.75030000     -32.08560000     -67.96540000
H      -43.00830000     -32.00440000     -67.18450000
H      -44.38010000     -31.22450000     -67.82800000
S      -42.62460000     -35.71440000     -72.62720000
S      -44.66140000     -33.63100000     -67.46130000
C      -44.01910000     -34.75230000     -73.33620000
H      -44.08390000     -33.65850000     -72.99070000
H      -43.97040000     -34.82430000     -74.40590000
C      -46.28280000     -33.44000000     -68.34840000
H      -46.35680000     -32.32460000     -68.44510000
H      -47.02800000     -33.83380000     -67.70650000
C      -46.25910000     -33.98260000     -69.75580000
H      -45.26710000     -33.74330000     -70.14130000
H      -46.27970000     -35.05260000     -69.64130000
C      -45.36480000     -35.41870000     -72.86090000
H      -45.22290000     -35.78710000     -71.86430000
H      -45.50170000     -36.38370000     -73.46320000
C      -46.54040000     -34.53230000     -73.14780000
C      -46.95990000     -34.24700000     -74.48450000
C      -47.26960000     -33.72110000     -72.19640000
H      -46.49790000     -34.72010000     -75.39590000
C      -48.30720000     -32.98130000     -72.76790000
C      -47.16300000     -33.38950000     -70.74010000
C      -48.07150000     -32.46620000     -70.33750000
S      -48.39200000     -33.18000000     -74.52260000
S      -49.21470000     -32.01450000     -71.63500000
H      -48.31930000     -32.15040000     -69.36060000
