40
Properties=species:S:1:pos:R:3 #=T CELL(abcABC):=T 1.889726e+02=T 90.00000=T Traj:=T positionsangstrom=T Step:=T 0=T Bead:=T pbc="F F F"
C      -43.02470000     -30.61960000     -70.07200000
C      -42.75140000     -31.79880000     -69.31820000
C      -42.21910000     -32.90840000     -70.05180000
C      -42.01540000     -32.87710000     -71.40200000
C      -42.26300000     -31.71130000     -72.13450000
C      -42.70300000     -30.59610000     -71.45810000
H      -43.34780000     -29.74750000     -69.55420000
H      -41.85020000     -33.79610000     -69.54450000
H      -42.06880000     -31.73950000     -73.20940000
H      -42.87750000     -29.62940000     -71.99770000
C      -41.48090000     -34.04380000     -72.17630000
H      -40.62450000     -34.51790000     -71.72360000
H      -41.16190000     -33.92130000     -73.16030000
C      -43.12710000     -31.93920000     -67.79680000
H      -42.38900000     -32.24320000     -67.10270000
H      -43.54910000     -31.01890000     -67.41530000
S      -42.65640000     -35.45330000     -72.22030000
S      -44.41060000     -33.25150000     -67.67660000
C      -44.30300000     -34.81540000     -72.85360000
H      -44.49080000     -33.85380000     -72.37040000
H      -44.13830000     -34.63200000     -73.94380000
C      -45.78710000     -32.73120000     -68.77760000
H      -45.65910000     -31.73170000     -69.20020000
H      -46.61620000     -32.62930000     -68.08540000
C      -46.02380000     -33.80550000     -69.87610000
H      -45.13250000     -33.91760000     -70.53980000
H      -46.37670000     -34.79640000     -69.48260000
C      -45.50030000     -35.78830000     -72.53830000
H      -45.33790000     -36.09130000     -71.48410000
H      -45.55130000     -36.69150000     -73.18880000
C      -46.80630000     -35.05480000     -72.79130000
C      -47.39910000     -35.18110000     -74.06840000
C      -47.38510000     -34.01300000     -72.05190000
H      -46.98300000     -35.96710000     -74.74000000
C      -48.47690000     -33.40430000     -72.80910000
C      -47.23890000     -33.34090000     -70.80050000
C      -48.16070000     -32.39920000     -70.49350000
S      -48.78700000     -34.16070000     -74.32920000
S      -49.29410000     -32.17340000     -71.90170000
H      -48.29370000     -31.61920000     -69.76850000
