40
Properties=species:S:1:pos:R:3 #=T CELL(abcABC):=T 1.889726e+02=T 90.00000=T Traj:=T positionsangstrom=T Step:=T 0=T Bead:=T pbc="F F F"
C      -42.92450000     -35.82710000     -72.90670000
C      -44.14200000     -36.37360000     -72.45620000
C      -44.41430000     -36.25510000     -71.10350000
C      -43.56310000     -35.68070000     -70.14850000
C      -42.32680000     -35.12310000     -70.60370000
C      -42.01180000     -35.23610000     -71.97590000
H      -42.66000000     -35.70460000     -73.98510000
H      -45.34820000     -36.49820000     -70.82630000
H      -41.56440000     -34.68020000     -69.97480000
H      -41.04550000     -34.85740000     -72.32720000
C      -44.01090000     -35.59940000     -68.77080000
H      -43.39100000     -36.42260000     -68.21910000
H      -45.06470000     -35.80210000     -68.61520000
C      -44.99390000     -37.02230000     -73.42520000
H      -44.70270000     -36.89450000     -74.54370000
H      -44.96120000     -38.05200000     -73.23480000
S      -43.50750000     -34.14430000     -67.82130000
S      -46.75000000     -36.51680000     -73.30970000
C      -44.16790000     -32.78990000     -68.90870000
H      -43.93150000     -31.88550000     -68.31100000
H      -43.68650000     -32.68520000     -69.84440000
C      -46.67420000     -34.68660000     -73.53900000
H      -47.55830000     -34.34770000     -74.08910000
H      -45.87410000     -34.41140000     -74.21800000
C      -46.57070000     -33.92920000     -72.20560000
H      -47.52310000     -34.22660000     -71.72600000
H      -45.64960000     -34.21850000     -71.60510000
C      -45.65190000     -32.80660000     -69.12140000
H      -46.25870000     -32.79490000     -68.21850000
H      -45.95040000     -33.73050000     -69.68770000
C      -46.12840000     -31.61610000     -69.95310000
C      -46.06480000     -30.38170000     -69.29550000
C      -46.39690000     -31.48480000     -71.37390000
H      -45.83520000     -30.22180000     -68.26240000
C      -46.62780000     -30.21580000     -71.81110000
C      -46.54370000     -32.45380000     -72.42390000
C      -46.78240000     -31.83650000     -73.60760000
S      -46.52950000     -29.03060000     -70.50190000
S      -46.75530000     -30.07690000     -73.50490000
H      -46.84520000     -32.32330000     -74.56990000
