40
Properties=species:S:1:pos:R:3 #=T CELL(abcABC):=T 1.889726e+02=T 90.00000=T Traj:=T positionsangstrom=T Step:=T 0=T Bead:=T pbc="F F F"
C      -42.59460000     -30.30340000     -69.97600000
C      -42.89450000     -31.58650000     -69.48640000
C      -42.40590000     -32.70640000     -70.22850000
C      -41.88870000     -32.59090000     -71.50610000
C      -41.75540000     -31.25060000     -72.07700000
C      -42.01750000     -30.17760000     -71.26810000
H      -42.85560000     -29.36620000     -69.37340000
H      -42.38350000     -33.72480000     -69.72600000
H      -41.27180000     -31.06190000     -73.07820000
H      -41.81470000     -29.17940000     -71.55040000
C      -41.47360000     -33.76630000     -72.34590000
H      -40.41660000     -33.91080000     -72.26530000
H      -41.54450000     -33.48180000     -73.37970000
C      -43.50820000     -31.70390000     -68.12710000
H      -42.76660000     -31.73540000     -67.21750000
H      -44.09480000     -30.75860000     -67.96570000
S      -42.45950000     -35.27610000     -72.10370000
S      -44.48430000     -33.31040000     -67.83500000
C      -44.15170000     -34.75690000     -72.82210000
H      -44.36740000     -33.74530000     -72.55730000
H      -44.12730000     -34.75380000     -73.96130000
C      -45.96670000     -33.03090000     -68.89380000
H      -46.62750000     -32.28100000     -68.47950000
H      -46.48350000     -33.97460000     -68.77900000
C      -45.79400000     -32.75960000     -70.40310000
H      -45.38750000     -31.77570000     -70.61340000
H      -45.01300000     -33.46230000     -70.83850000
C      -45.34310000     -35.63400000     -72.26760000
H      -45.17430000     -35.51830000     -71.22240000
H      -45.29380000     -36.70300000     -72.46550000
C      -46.70740000     -35.15020000     -72.67680000
C      -47.40720000     -35.72200000     -73.69030000
C      -47.41430000     -33.99930000     -72.10090000
H      -47.11010000     -36.55380000     -74.24240000
C      -48.66840000     -33.91620000     -72.59910000
C      -47.13170000     -32.90540000     -71.15850000
C      -48.26640000     -32.19110000     -70.94950000
S      -49.05200000     -35.09470000     -73.79470000
S      -49.67320000     -32.59930000     -71.93550000
H      -48.35450000     -31.33500000     -70.20560000
