40
Properties=species:S:1:pos:R:3 #=T CELL(abcABC):=T 1.889726e+02=T 90.00000=T Traj:=T positionsangstrom=T Step:=T 0=T Bead:=T pbc="F F F"
C      -42.67420000     -30.32500000     -69.93980000
C      -42.90820000     -31.64870000     -69.46930000
C      -42.41400000     -32.73140000     -70.22390000
C      -41.81240000     -32.54750000     -71.50770000
C      -41.62350000     -31.25350000     -71.96990000
C      -42.07530000     -30.15740000     -71.17430000
H      -42.81160000     -29.42670000     -69.39480000
H      -42.75160000     -33.77660000     -69.89920000
H      -41.24960000     -31.11980000     -72.92580000
H      -41.86830000     -29.08820000     -71.55050000
C      -41.41000000     -33.72730000     -72.38080000
H      -40.42720000     -34.19310000     -72.05540000
H      -41.34790000     -33.42030000     -73.47260000
C      -43.58380000     -31.92900000     -68.11730000
H      -42.79130000     -32.02710000     -67.44580000
H      -44.10590000     -31.01990000     -67.82780000
S      -42.52200000     -35.24390000     -72.11440000
S      -44.59840000     -33.42970000     -68.03280000
C      -44.01380000     -34.63380000     -72.95920000
H      -44.18810000     -33.55060000     -72.88030000
H      -43.89230000     -34.93840000     -73.99180000
C      -46.12560000     -33.13520000     -69.00740000
H      -46.90420000     -32.44790000     -68.56810000
H      -46.58990000     -34.11000000     -69.16060000
C      -45.80330000     -32.53780000     -70.43260000
H      -45.68300000     -31.44310000     -70.30350000
H      -44.96410000     -32.96470000     -70.91360000
C      -45.19810000     -35.40820000     -72.32500000
H      -45.16770000     -35.34920000     -71.21370000
H      -45.01860000     -36.45570000     -72.56000000
C      -46.62710000     -35.05490000     -72.71380000
C      -47.42870000     -35.85890000     -73.50220000
C      -47.31680000     -33.91980000     -72.16090000
H      -47.19270000     -36.70850000     -73.97840000
C      -48.66210000     -33.87720000     -72.58640000
C      -47.03140000     -32.73690000     -71.25950000
C      -48.16940000     -31.96210000     -71.01200000
S      -49.08440000     -35.25270000     -73.60300000
S      -49.65270000     -32.62690000     -71.83510000
H      -48.23820000     -31.02650000     -70.47030000
