40
Properties=species:S:1:pos:R:3 #=T CELL(abcABC):=T 1.889726e+02=T 90.00000=T Traj:=T positionsangstrom=T Step:=T 0=T Bead:=T pbc="F F F"
C      -42.75320000     -30.40750000     -69.90400000
C      -42.87070000     -31.72320000     -69.45720000
C      -42.47360000     -32.84260000     -70.26770000
C      -41.68150000     -32.55590000     -71.39560000
C      -41.60190000     -31.23270000     -71.85210000
C      -42.13200000     -30.18250000     -71.10000000
H      -43.22120000     -29.65670000     -69.39540000
H      -42.43360000     -33.86980000     -69.97510000
H      -41.08460000     -31.12090000     -72.76230000
H      -42.13600000     -29.16440000     -71.62550000
C      -41.21340000     -33.74240000     -72.24590000
H      -40.36200000     -34.22110000     -71.84590000
H      -41.01790000     -33.36460000     -73.24470000
C      -43.60620000     -31.95870000     -68.12680000
H      -42.86550000     -32.07240000     -67.30660000
H      -44.43370000     -31.17960000     -67.77450000
S      -42.39990000     -35.18600000     -72.33630000
S      -44.59570000     -33.55920000     -68.11210000
C      -44.04430000     -34.62080000     -73.00700000
H      -44.11060000     -33.50860000     -72.81570000
H      -44.09740000     -34.79030000     -74.08440000
C      -46.06760000     -33.11060000     -69.13230000
H      -46.77490000     -32.60280000     -68.54260000
H      -46.43920000     -34.17010000     -69.26750000
C      -45.83900000     -32.52370000     -70.51590000
H      -45.44260000     -31.44020000     -70.45680000
H      -45.05780000     -33.09340000     -70.95560000
C      -45.13110000     -35.37090000     -72.23540000
H      -44.94030000     -35.15920000     -71.17090000
H      -45.05650000     -36.44750000     -72.40220000
C      -46.61180000     -34.95310000     -72.58760000
C      -47.38060000     -35.86250000     -73.29560000
C      -47.41660000     -33.84610000     -72.13520000
H      -47.05310000     -36.73510000     -73.74270000
C      -48.79580000     -33.83280000     -72.56480000
C      -47.10970000     -32.63190000     -71.27980000
C      -48.29260000     -31.83400000     -71.13550000
S      -49.11630000     -35.38990000     -73.43560000
S      -49.70040000     -32.48340000     -71.90960000
H      -48.38500000     -30.93110000     -70.62140000
