40
Properties=species:S:1:pos:R:3 #=T CELL(abcABC):=T 1.889726e+02=T 90.00000=T Traj:=T positionsangstrom=T Step:=T 0=T Bead:=T pbc="F F F"
C      -42.79160000     -30.43440000     -69.94130000
C      -42.87870000     -31.73860000     -69.45670000
C      -42.32550000     -32.85420000     -70.18440000
C      -41.74060000     -32.61050000     -71.43390000
C      -41.62020000     -31.25260000     -71.87800000
C      -42.12420000     -30.17690000     -71.15470000
H      -43.10750000     -29.61410000     -69.29640000
H      -42.53300000     -33.88070000     -70.02530000
H      -41.24660000     -31.09990000     -72.91730000
H      -42.05300000     -29.22050000     -71.54950000
C      -41.27400000     -33.74400000     -72.29680000
H      -40.28370000     -34.15110000     -71.93810000
H      -41.04520000     -33.43490000     -73.31740000
C      -43.64820000     -32.01890000     -68.15530000
H      -42.90560000     -32.10030000     -67.37820000
H      -44.24930000     -31.21290000     -67.91100000
S      -42.46550000     -35.15750000     -72.55330000
S      -44.58300000     -33.61800000     -68.10410000
C      -44.12610000     -34.47830000     -72.78700000
H      -44.07460000     -33.44370000     -72.55020000
H      -44.43620000     -34.45800000     -73.83690000
C      -46.12730000     -33.17900000     -69.08130000
H      -46.81680000     -32.58340000     -68.45880000
H      -46.65360000     -34.13230000     -69.34700000
C      -45.92820000     -32.39810000     -70.35190000
H      -45.86170000     -31.34160000     -70.11750000
H      -44.95430000     -32.56910000     -70.88830000
C      -45.15860000     -35.29010000     -72.05880000
H      -45.08510000     -35.24660000     -70.98920000
H      -44.97570000     -36.35110000     -72.27030000
C      -46.60980000     -35.00230000     -72.38690000
C      -47.39230000     -35.87160000     -73.13180000
C      -47.34660000     -33.83000000     -71.98140000
H      -47.03830000     -36.75730000     -73.60940000
C      -48.63710000     -33.88490000     -72.49250000
C      -47.14010000     -32.63560000     -71.21570000
C      -48.28810000     -31.82040000     -71.22370000
S      -49.06310000     -35.37980000     -73.35480000
S      -49.62310000     -32.49910000     -72.19440000
H      -48.44630000     -30.92320000     -70.67540000
