40
Properties=species:S:1:pos:R:3 #=T CELL(abcABC):=T 1.889726e+02=T 90.00000=T Traj:=T positionsangstrom=T Step:=T 0=T Bead:=T pbc="F F F"
C      -42.71090000     -30.46630000     -69.86220000
C      -42.88800000     -31.81030000     -69.47940000
C      -42.50920000     -32.82480000     -70.34090000
C      -41.99670000     -32.56700000     -71.59550000
C      -41.99680000     -31.24010000     -72.07530000
C      -42.32110000     -30.15380000     -71.16320000
H      -42.93180000     -29.64670000     -69.21320000
H      -42.53370000     -33.87040000     -69.95510000
H      -41.63720000     -30.99790000     -73.01020000
H      -42.10880000     -29.11500000     -71.56060000
C      -41.50470000     -33.71140000     -72.44420000
H      -40.44040000     -34.03390000     -72.30290000
H      -41.50030000     -33.43760000     -73.53010000
C      -43.49420000     -32.15030000     -68.14430000
H      -42.74220000     -32.24430000     -67.38640000
H      -44.19820000     -31.43500000     -67.77800000
S      -42.44090000     -35.29110000     -72.31790000
S      -44.68580000     -33.59400000     -68.06430000
C      -44.13170000     -34.59400000     -72.62900000
H      -44.34080000     -33.52440000     -72.61520000
H      -44.50190000     -34.91510000     -73.62490000
C      -46.31160000     -33.07720000     -68.69470000
H      -46.73370000     -32.34150000     -68.03870000
H      -46.92860000     -34.04800000     -68.78280000
C      -46.20410000     -32.40240000     -70.12740000
H      -45.90240000     -31.35130000     -69.95260000
H      -45.31240000     -32.68710000     -70.62950000
C      -45.15170000     -35.23770000     -71.60970000
H      -44.91510000     -34.82360000     -70.56860000
H      -44.98080000     -36.29130000     -71.48290000
C      -46.56070000     -35.09830000     -72.08650000
C      -47.22290000     -35.94810000     -72.95410000
C      -47.42410000     -33.89960000     -71.82210000
H      -46.53750000     -36.76380000     -73.46990000
C      -48.53510000     -33.88540000     -72.70940000
C      -47.28830000     -32.66770000     -71.10510000
C      -48.29940000     -31.77490000     -71.37080000
S      -48.67840000     -35.29840000     -73.67840000
S      -49.37840000     -32.37040000     -72.59060000
H      -48.43940000     -30.74880000     -70.92960000
