40
Properties=species:S:1:pos:R:3 #=T CELL(abcABC):=T 1.889726e+02=T 90.00000=T Traj:=T positionsangstrom=T Step:=T 0=T Bead:=T pbc="F F F"
C      -43.06100000     -30.47320000     -69.89410000
C      -43.04330000     -31.74480000     -69.33860000
C      -42.42840000     -32.78850000     -70.04990000
C      -41.96420000     -32.57960000     -71.38470000
C      -41.99290000     -31.29980000     -71.83790000
C      -42.53990000     -30.21950000     -71.15660000
H      -43.28970000     -29.56390000     -69.31600000
H      -42.33100000     -33.72950000     -69.48060000
H      -41.64170000     -31.10760000     -72.89610000
H      -42.47120000     -29.21890000     -71.46750000
C      -41.36450000     -33.76460000     -72.14280000
H      -40.33590000     -33.88900000     -71.72740000
H      -41.13840000     -33.53890000     -73.24940000
C      -43.67060000     -32.02740000     -68.01050000
H      -43.04120000     -32.34080000     -67.21950000
H      -44.18880000     -31.14280000     -67.64550000
S      -42.29570000     -35.36130000     -71.99920000
S      -44.89320000     -33.42980000     -68.02420000
C      -43.99090000     -34.97620000     -72.76050000
H      -44.03980000     -33.96440000     -73.20730000
H      -44.03640000     -35.57010000     -73.69250000
C      -46.21820000     -33.00930000     -69.20580000
H      -47.07320000     -32.44450000     -68.74960000
H      -46.76930000     -33.96050000     -69.42510000
C      -45.77120000     -32.44130000     -70.59150000
H      -45.47840000     -31.40440000     -70.56760000
H      -44.99540000     -33.14350000     -70.94210000
C      -45.11100000     -35.42790000     -71.83190000
H      -44.90320000     -35.08180000     -70.82410000
H      -45.03270000     -36.54030000     -71.74860000
C      -46.50330000     -35.04170000     -72.38160000
C      -47.22290000     -35.94100000     -73.15510000
C      -47.26100000     -33.83350000     -72.19340000
H      -47.20490000     -37.01230000     -73.26550000
C      -48.49900000     -33.79790000     -72.84280000
C      -47.03530000     -32.58050000     -71.42470000
C      -48.11410000     -31.73130000     -71.46970000
S      -48.86270000     -35.28840000     -73.59900000
S      -49.43540000     -32.34100000     -72.43390000
H      -48.11370000     -30.86010000     -70.95650000
