40
Properties=species:S:1:pos:R:3 #=T CELL(abcABC):=T 1.889726e+02=T 90.00000=T Traj:=T positionsangstrom=T Step:=T 0=T Bead:=T pbc="F F F"
C      -43.06180000     -30.41960000     -69.92020000
C      -43.06140000     -31.69430000     -69.28150000
C      -42.41270000     -32.71650000     -69.93990000
C      -41.97000000     -32.66350000     -71.26480000
C      -42.06510000     -31.40390000     -71.83760000
C      -42.50410000     -30.28100000     -71.16100000
H      -43.76060000     -29.65030000     -69.44900000
H      -42.30680000     -33.68210000     -69.39240000
H      -41.66240000     -31.12080000     -72.76520000
H      -42.50410000     -29.30720000     -71.61470000
C      -41.38920000     -33.85160000     -72.01340000
H      -40.50010000     -34.16030000     -71.61320000
H      -41.31550000     -33.68650000     -73.04290000
C      -43.73350000     -31.92620000     -67.94340000
H      -43.07650000     -32.05350000     -67.06200000
H      -44.39480000     -31.04140000     -67.70650000
S      -42.44170000     -35.37380000     -71.84430000
S      -44.78570000     -33.45640000     -68.01690000
C      -43.96000000     -34.83490000     -72.75770000
H      -44.02950000     -33.78100000     -72.64620000
H      -43.95310000     -35.10770000     -73.83220000
C      -46.16940000     -32.83570000     -69.10030000
H      -46.54180000     -32.00740000     -68.55220000
H      -46.91690000     -33.66430000     -69.16670000
C      -45.79240000     -32.39280000     -70.52740000
H      -45.65090000     -31.28280000     -70.50630000
H      -44.86200000     -32.70790000     -70.92660000
C      -45.17670000     -35.46040000     -72.04430000
H      -45.16740000     -35.16050000     -70.98500000
H      -45.10410000     -36.54590000     -72.11130000
C      -46.53540000     -35.09020000     -72.52780000
C      -47.29300000     -35.95430000     -73.27920000
C      -47.20610000     -33.85090000     -72.27710000
H      -47.25390000     -36.99650000     -73.35090000
C      -48.48460000     -33.85350000     -72.79420000
C      -46.90700000     -32.62460000     -71.51280000
C      -47.99220000     -31.73200000     -71.57960000
S      -48.88450000     -35.30020000     -73.68930000
S      -49.37780000     -32.38240000     -72.48200000
H      -47.91360000     -30.71360000     -71.34040000
