40
Properties=species:S:1:pos:R:3 #=T CELL(abcABC):=T 1.889726e+02=T 90.00000=T Traj:=T positionsangstrom=T Step:=T 0=T Bead:=T pbc="F F F"
C      -43.21560000     -35.71060000     -73.82600000
C      -44.62040000     -35.63940000     -73.84830000
C      -45.37740000     -36.35020000     -72.88500000
C      -44.73640000     -36.82680000     -71.75020000
C      -43.35310000     -36.90380000     -71.67270000
C      -42.58920000     -36.32420000     -72.76360000
H      -42.67150000     -35.36990000     -74.71600000
H      -46.50280000     -36.36470000     -72.99260000
H      -42.96540000     -37.30040000     -70.80170000
H      -41.46080000     -36.41570000     -72.62670000
C      -45.58300000     -37.38490000     -70.62230000
H      -44.88750000     -37.51520000     -69.73920000
H      -45.91180000     -38.38560000     -70.97940000
C      -45.24610000     -35.08220000     -75.08100000
H      -44.77200000     -35.46420000     -75.95320000
H      -46.34650000     -35.26230000     -75.00180000
S      -47.05690000     -36.34100000     -70.07610000
S      -45.00500000     -33.31100000     -75.09810000
C      -46.18550000     -34.69460000     -69.86020000
H      -45.89250000     -34.68300000     -68.84460000
H      -45.26140000     -34.66390000     -70.36870000
C      -45.71450000     -32.87110000     -73.39980000
H      -46.44330000     -33.65290000     -73.33300000
H      -46.35800000     -31.98150000     -73.57250000
C      -44.71270000     -32.67280000     -72.26150000
H      -44.53710000     -33.55580000     -71.66100000
H      -43.75930000     -32.55100000     -72.72050000
C      -47.06090000     -33.47370000     -70.24050000
H      -48.08990000     -33.66330000     -69.99940000
H      -47.07160000     -33.24340000     -71.29750000
C      -46.60590000     -32.24150000     -69.45310000
C      -47.13560000     -31.67630000     -68.26820000
C      -45.58990000     -31.42360000     -70.06650000
H      -47.89760000     -32.21810000     -67.69550000
C      -45.41220000     -30.25710000     -69.32840000
C      -44.77740000     -31.42670000     -71.26030000
C      -43.95730000     -30.32350000     -71.40180000
S      -46.35900000     -30.15750000     -67.85720000
S      -44.21840000     -29.14030000     -70.08710000
H      -43.38220000     -30.10400000     -72.25800000
