40
Properties=species:S:1:pos:R:3 #=T CELL(abcABC):=T 1.889726e+02=T 90.00000=T Traj:=T positionsangstrom=T Step:=T 0=T Bead:=T pbc="F F F"
C      -43.23930000     -35.83870000     -73.93360000
C      -44.62590000     -35.73610000     -73.88800000
C      -45.38160000     -36.29480000     -72.85060000
C      -44.73470000     -36.93350000     -71.81270000
C      -43.34420000     -36.78490000     -71.71150000
C      -42.60690000     -36.21480000     -72.71290000
H      -42.71870000     -35.36610000     -74.86300000
H      -46.47230000     -36.27240000     -72.83160000
H      -42.85650000     -37.11070000     -70.82430000
H      -41.54360000     -36.10320000     -72.57690000
C      -45.40140000     -37.51030000     -70.64390000
H      -44.69510000     -37.68770000     -69.79230000
H      -45.88420000     -38.44610000     -70.81850000
C      -45.45310000     -34.97600000     -74.95460000
H      -45.22380000     -35.26390000     -75.99860000
H      -46.51400000     -35.16210000     -74.88760000
S      -46.71990000     -36.46020000     -69.95450000
S      -45.16140000     -33.21440000     -74.94330000
C      -46.01580000     -34.80100000     -69.67050000
H      -45.64560000     -34.69500000     -68.57990000
H      -45.20180000     -34.61900000     -70.38370000
C      -45.63280000     -32.53520000     -73.41130000
H      -46.21100000     -33.22630000     -72.88080000
H      -46.21210000     -31.53120000     -73.45170000
C      -44.41900000     -32.34820000     -72.44170000
H      -44.25050000     -33.31300000     -71.96640000
H      -43.55270000     -32.11310000     -73.05230000
C      -47.11790000     -33.68340000     -70.05660000
H      -48.03090000     -33.93830000     -69.50380000
H      -47.38450000     -33.90960000     -71.12010000
C      -46.65700000     -32.31420000     -69.66890000
C      -47.12050000     -31.82990000     -68.43390000
C      -45.67150000     -31.40430000     -70.25900000
H      -47.90840000     -32.43270000     -68.00600000
C      -45.60040000     -30.24620000     -69.46570000
C      -44.72450000     -31.29320000     -71.40740000
C      -44.00890000     -30.12490000     -71.38360000
S      -46.46960000     -30.34740000     -67.99540000
S      -44.35160000     -29.12600000     -69.98410000
H      -43.29860000     -29.82620000     -72.15140000
