40
Properties=species:S:1:pos:R:3 #=T CELL(abcABC):=T 1.889726e+02=T 90.00000=T Traj:=T positionsangstrom=T Step:=T 0=T Bead:=T pbc="F F F"
C      -43.47440000     -35.18840000     -73.92620000
C      -44.86610000     -35.24040000     -73.71080000
C      -45.37880000     -36.01930000     -72.62450000
C      -44.54150000     -36.62720000     -71.72630000
C      -43.16370000     -36.63930000     -72.03090000
C      -42.65830000     -35.92340000     -73.11490000
H      -43.10680000     -34.54730000     -74.69130000
H      -46.46130000     -35.99710000     -72.64020000
H      -42.63010000     -37.30480000     -71.38440000
H      -41.57660000     -35.86240000     -73.32320000
C      -45.02680000     -37.52420000     -70.55260000
H      -44.17320000     -37.90040000     -69.92840000
H      -45.48170000     -38.38580000     -70.99510000
C      -45.78130000     -34.48850000     -74.56780000
H      -45.96420000     -35.08910000     -75.52040000
H      -46.77850000     -34.43110000     -74.05450000
S      -46.32600000     -36.92560000     -69.50710000
S      -45.26240000     -32.86860000     -75.22300000
C      -45.88180000     -35.11190000     -69.39390000
H      -45.94760000     -34.81170000     -68.30800000
H      -44.81070000     -35.06410000     -69.66230000
C      -45.25520000     -31.98090000     -73.58660000
H      -46.31340000     -31.99320000     -73.17360000
H      -44.98470000     -30.93080000     -73.93800000
C      -44.34040000     -32.42830000     -72.44120000
H      -44.45460000     -33.50620000     -72.04400000
H      -43.30460000     -32.35190000     -72.76130000
C      -46.67250000     -34.07580000     -70.22190000
H      -47.72690000     -34.22830000     -70.35840000
H      -46.24460000     -34.07960000     -71.25550000
C      -46.49460000     -32.69520000     -69.76830000
C      -47.24760000     -32.23100000     -68.69570000
C      -45.62110000     -31.63990000     -70.19770000
H      -48.04450000     -32.73090000     -68.17820000
C      -45.73610000     -30.43920000     -69.48210000
C      -44.62680000     -31.47120000     -71.23340000
C      -43.96170000     -30.23430000     -71.22900000
S      -46.91920000     -30.57020000     -68.21040000
S      -44.65270000     -29.18490000     -69.99770000
H      -43.27120000     -29.89320000     -71.95280000
