40
Properties=species:S:1:pos:R:3 #=T CELL(abcABC):=T 1.889726e+02=T 90.00000=T Traj:=T positionsangstrom=T Step:=T 0=T Bead:=T pbc="F F F"
C      -41.62370000     -33.58070000     -71.12190000
C      -42.16890000     -32.45410000     -70.43160000
C      -42.86440000     -31.47150000     -71.13500000
C      -42.89230000     -31.59890000     -72.57550000
C      -42.16630000     -32.51590000     -73.28220000
C      -41.53980000     -33.55720000     -72.55060000
H      -41.07620000     -34.31080000     -70.53110000
H      -43.38070000     -30.74400000     -70.52830000
H      -42.08380000     -32.34860000     -74.36360000
H      -41.00590000     -34.36310000     -73.09460000
C      -43.53860000     -30.56510000     -73.42770000
H      -42.70210000     -30.04120000     -73.96320000
H      -44.12410000     -29.85090000     -72.84500000
C      -42.05360000     -32.37570000     -68.91850000
H      -41.85780000     -33.38700000     -68.55100000
H      -41.31670000     -31.60020000     -68.51380000
S      -44.66680000     -31.36610000     -74.68460000
S      -43.62380000     -31.90300000     -67.98640000
C      -45.88400000     -32.27890000     -73.64650000
H      -46.26750000     -31.61900000     -72.86430000
H      -46.70300000     -32.26580000     -74.35880000
C      -44.84040000     -33.13110000     -68.50880000
H      -45.42540000     -33.42170000     -67.68540000
H      -44.22290000     -33.96460000     -68.71980000
C      -45.81660000     -32.73600000     -69.67500000
H      -46.38060000     -31.79360000     -69.52410000
H      -45.21560000     -32.51760000     -70.56690000
C      -45.57400000     -33.63550000     -73.06190000
H      -44.74550000     -33.63750000     -72.31300000
H      -45.12580000     -34.17160000     -73.92820000
C      -46.70040000     -34.53710000     -72.50170000
C      -47.39530000     -35.41200000     -73.31780000
C      -47.22200000     -34.49270000     -71.13820000
H      -47.17520000     -35.62750000     -74.39510000
C      -48.22960000     -35.45350000     -71.01880000
C      -46.92410000     -33.80510000     -69.90830000
C      -47.79420000     -34.07840000     -68.90810000
S      -48.62910000     -36.34410000     -72.48510000
S      -48.76420000     -35.47260000     -69.34630000
H      -47.72760000     -33.62300000     -67.88780000
