40
Properties=species:S:1:pos:R:3 #=T CELL(abcABC):=T 1.889726e+02=T 90.00000=T Traj:=T positionsangstrom=T Step:=T 0=T Bead:=T pbc="F F F"
C      -41.69870000     -33.97380000     -71.71720000
C      -42.15800000     -32.77170000     -71.10380000
C      -42.60830000     -31.72530000     -71.96910000
C      -42.63630000     -31.92790000     -73.35720000
C      -42.16840000     -33.12090000     -73.95420000
C      -41.68930000     -34.20670000     -73.08410000
H      -41.29890000     -34.77550000     -71.09820000
H      -42.97090000     -30.83220000     -71.48810000
H      -42.17260000     -33.22860000     -75.04830000
H      -41.35990000     -35.13570000     -73.48850000
C      -43.43740000     -30.91000000     -74.14660000
H      -42.97070000     -30.92080000     -75.17290000
H      -43.38600000     -29.90340000     -73.78550000
C      -42.10770000     -32.53690000     -69.58940000
H      -41.82500000     -33.51520000     -69.06970000
H      -41.29280000     -31.84610000     -69.33420000
S      -45.26550000     -31.29120000     -74.40150000
S      -43.46350000     -31.65110000     -68.72140000
C      -45.88930000     -31.64860000     -72.68830000
H      -45.60190000     -30.91570000     -71.92030000
H      -46.92850000     -31.58130000     -72.69130000
C      -44.60100000     -33.05080000     -68.70100000
H      -44.51790000     -33.66310000     -67.80200000
H      -44.49860000     -33.85500000     -69.41000000
C      -46.05570000     -32.59200000     -68.93780000
H      -46.47150000     -32.02690000     -68.01800000
H      -45.92830000     -31.84360000     -69.76150000
C      -45.50510000     -33.09660000     -72.33430000
H      -44.89080000     -33.24470000     -71.45560000
H      -44.93730000     -33.50090000     -73.22280000
C      -46.64440000     -34.05280000     -72.01370000
C      -47.29780000     -34.88750000     -72.91200000
C      -47.25660000     -34.25360000     -70.64960000
H      -47.14960000     -34.74410000     -74.00320000
C      -48.13520000     -35.33190000     -70.64270000
C      -47.03510000     -33.77470000     -69.28840000
C      -47.81180000     -34.49690000     -68.35860000
S      -48.39790000     -36.09560000     -72.22530000
S      -48.75800000     -35.77520000     -69.05260000
H      -47.79660000     -34.33580000     -67.28040000
