40
Properties=species:S:1:pos:R:3 #=T CELL(abcABC):=T 1.889726e+02=T 90.00000=T Traj:=T positionsangstrom=T Step:=T 0=T Bead:=T pbc="F F F"
C      -42.24960000     -34.16740000     -73.64170000
C      -43.53050000     -34.75460000     -73.87600000
C      -43.96810000     -35.70340000     -72.96370000
C      -43.18460000     -36.10600000     -71.85270000
C      -41.95340000     -35.51040000     -71.64970000
C      -41.43870000     -34.59380000     -72.62680000
H      -41.89470000     -33.45840000     -74.42720000
H      -44.88900000     -36.08220000     -73.08420000
H      -41.34160000     -35.63760000     -70.68610000
H      -40.42730000     -34.26960000     -72.55260000
C      -43.73660000     -37.28060000     -71.02150000
H      -43.07980000     -37.58110000     -70.17380000
H      -43.69370000     -38.16650000     -71.72540000
C      -44.44840000     -34.33520000     -75.01920000
H      -44.03100000     -34.51000000     -75.96210000
H      -45.37270000     -34.82990000     -74.96370000
S      -45.42590000     -37.12130000     -70.49380000
S      -44.67700000     -32.50330000     -74.92900000
C      -45.47850000     -35.42360000     -69.77070000
H      -45.95870000     -35.65180000     -68.77460000
H      -44.39510000     -35.18540000     -69.68560000
C      -45.58570000     -32.10420000     -73.32750000
H      -46.44950000     -32.79940000     -73.17290000
H      -45.98790000     -31.07900000     -73.58440000
C      -44.74970000     -31.93840000     -72.00680000
H      -44.35260000     -32.94810000     -71.71940000
H      -43.91010000     -31.35200000     -72.28430000
C      -46.40470000     -34.54830000     -70.55980000
H      -47.27420000     -35.10090000     -70.89380000
H      -45.84170000     -34.25310000     -71.41480000
C      -46.87300000     -33.27850000     -69.74280000
C      -47.74840000     -33.35210000     -68.64510000
C      -46.47660000     -31.94410000     -70.03260000
H      -48.19930000     -34.27950000     -68.17730000
C      -47.11600000     -30.96080000     -69.24390000
C      -45.65650000     -31.29640000     -70.99460000
C      -45.64550000     -29.90100000     -70.88560000
S      -48.21650000     -31.72140000     -68.09880000
S      -46.80900000     -29.32350000     -69.64060000
H      -44.99510000     -29.16570000     -71.41780000
