40
Properties=species:S:1:pos:R:3 #=T CELL(abcABC):=T 1.889726e+02=T 90.00000=T Traj:=T positionsangstrom=T Step:=T 0=T Bead:=T pbc="F F F"
C      -45.82470000     -32.46310000     -73.48030000
C      -44.61310000     -31.93830000     -73.12160000
C      -43.51230000     -32.71040000     -72.92070000
C      -43.59710000     -34.10330000     -73.08720000
C      -44.74940000     -34.66100000     -73.58840000
C      -45.82030000     -33.85410000     -73.88290000
H      -46.73570000     -31.86180000     -73.59150000
H      -42.55780000     -32.47640000     -72.45950000
H      -44.74400000     -35.64830000     -73.86760000
H      -46.75650000     -34.38430000     -74.13190000
C      -42.42100000     -35.00850000     -72.65550000
H      -41.53980000     -34.92310000     -73.22670000
H      -42.58130000     -36.08780000     -72.74240000
C      -44.51800000     -30.46300000     -73.05730000
H      -43.68000000     -30.16960000     -73.77830000
H      -45.40280000     -29.92100000     -73.16050000
S      -41.93200000     -34.60530000     -70.89040000
S      -43.83880000     -29.89670000     -71.40970000
C      -43.15600000     -35.46480000     -69.93570000
H      -43.62150000     -36.24410000     -70.60110000
H      -42.59030000     -36.12120000     -69.20750000
C      -44.15910000     -31.35620000     -70.27580000
H      -43.43340000     -31.40760000     -69.55690000
H      -43.91380000     -32.24550000     -70.90150000
C      -45.53650000     -31.33870000     -69.73180000
H      -45.61180000     -31.37760000     -68.58140000
H      -45.90070000     -30.33010000     -69.86610000
C      -44.31590000     -34.61920000     -69.28330000
H      -44.08420000     -33.59710000     -69.40270000
H      -44.24900000     -34.91670000     -68.30000000
C      -45.70060000     -34.86840000     -69.83350000
C      -46.27680000     -36.08580000     -70.02280000
C      -46.56710000     -33.77700000     -70.24010000
H      -45.83800000     -36.98830000     -69.81470000
C      -47.80220000     -34.22800000     -70.61780000
C      -46.56920000     -32.31810000     -70.18020000
C      -47.79000000     -31.82020000     -70.52450000
S      -47.91630000     -36.00310000     -70.76370000
S      -48.96150000     -32.98810000     -70.97990000
H      -48.09090000     -30.75260000     -70.41200000
