40
Properties=species:S:1:pos:R:3 #=T CELL(abcABC):=T 1.889726e+02=T 90.00000=T Traj:=T positionsangstrom=T Step:=T 0=T Bead:=T pbc="F F F"
C      -42.12680000     -33.53250000     -72.87990000
C      -43.18220000     -34.13740000     -73.59120000
C      -43.76350000     -35.29920000     -73.08580000
C      -43.28070000     -35.87560000     -71.91300000
C      -42.24050000     -35.34490000     -71.18900000
C      -41.68290000     -34.09940000     -71.63060000
H      -41.85870000     -32.54140000     -73.22150000
H      -44.52210000     -35.90790000     -73.72580000
H      -41.94920000     -35.83900000     -70.26880000
H      -40.89490000     -33.67840000     -71.13790000
C      -43.74920000     -37.21550000     -71.44800000
H      -43.07340000     -37.42780000     -70.64880000
H      -43.51630000     -37.87670000     -72.29040000
C      -43.57610000     -33.57320000     -74.96990000
H      -42.83650000     -33.57740000     -75.75840000
H      -44.50250000     -34.09440000     -75.37710000
S      -45.52260000     -37.36810000     -71.05300000
S      -44.11600000     -31.84720000     -74.81550000
C      -45.93980000     -35.83070000     -70.06030000
H      -46.73630000     -36.12730000     -69.36610000
H      -45.04290000     -35.53650000     -69.50230000
C      -45.46130000     -31.96530000     -73.44440000
H      -46.02930000     -32.94470000     -73.58010000
H      -46.09950000     -31.11890000     -73.62860000
C      -44.85100000     -31.96940000     -72.02410000
H      -44.54520000     -33.01330000     -71.69900000
H      -43.89400000     -31.39290000     -72.04670000
C      -46.60420000     -34.69110000     -70.90090000
H      -47.40560000     -35.11560000     -71.49280000
H      -45.78670000     -34.41060000     -71.64650000
C      -47.07150000     -33.58210000     -70.05460000
C      -48.18320000     -33.71500000     -69.12640000
C      -46.66450000     -32.19730000     -70.13620000
H      -48.75550000     -34.63070000     -68.87080000
C      -47.27220000     -31.40290000     -69.19100000
C      -45.74600000     -31.42480000     -70.91460000
C      -45.63640000     -30.11690000     -70.57120000
S      -48.46920000     -32.24080000     -68.27700000
S      -46.71680000     -29.72570000     -69.27530000
H      -44.92750000     -29.42870000     -70.90940000
