40
Properties=species:S:1:pos:R:3 #=T CELL(abcABC):=T 1.889726e+02=T 90.00000=T Traj:=T positionsangstrom=T Step:=T 0=T Bead:=T pbc="F F F"
C      -41.84510000     -33.55850000     -72.92440000
C      -42.98660000     -34.15530000     -73.51580000
C      -43.46310000     -35.27630000     -72.95310000
C      -42.90200000     -35.83320000     -71.77470000
C      -41.75600000     -35.28810000     -71.23730000
C      -41.25280000     -34.11630000     -71.77720000
H      -41.48210000     -32.58660000     -73.29470000
H      -44.36100000     -35.66020000     -73.33280000
H      -41.33760000     -35.78650000     -70.40710000
H      -40.33360000     -33.61570000     -71.31250000
C      -43.61660000     -37.01980000     -71.11580000
H      -43.37510000     -36.98190000     -70.03730000
H      -43.13850000     -37.91090000     -71.46910000
C      -43.65330000     -33.70960000     -74.79280000
H      -43.01220000     -33.83500000     -75.60360000
H      -44.59360000     -34.16840000     -74.91720000
S      -45.46740000     -37.04850000     -71.32730000
S      -44.18440000     -31.93050000     -74.59870000
C      -45.93930000     -35.52570000     -70.39840000
H      -46.49260000     -35.89200000     -69.54080000
H      -44.98850000     -35.10560000     -70.14160000
C      -45.36220000     -31.92040000     -73.18690000
H      -46.00580000     -32.76270000     -73.42830000
H      -45.96950000     -31.05720000     -73.27050000
C      -44.75050000     -32.03770000     -71.80330000
H      -44.44990000     -33.08700000     -71.62630000
H      -43.86840000     -31.47350000     -71.65920000
C      -46.77350000     -34.66130000     -71.29600000
H      -47.68890000     -35.24690000     -71.59300000
H      -46.18150000     -34.30720000     -72.13920000
C      -47.33780000     -33.54890000     -70.40760000
C      -48.46450000     -33.69530000     -69.60700000
C      -46.78050000     -32.28360000     -70.14660000
H      -49.05860000     -34.60230000     -69.53670000
C      -47.47810000     -31.50980000     -69.19890000
C      -45.69320000     -31.48900000     -70.71840000
C      -45.63300000     -30.24030000     -70.25200000
S      -48.89770000     -32.32690000     -68.56160000
S      -46.81390000     -29.95150000     -68.98710000
H      -44.91050000     -29.41050000     -70.44720000
