40
Properties=species:S:1:pos:R:3 #=T CELL(abcABC):=T 1.889726e+02=T 90.00000=T Traj:=T positionsangstrom=T Step:=T 0=T Bead:=T pbc="F F F"
C      -41.68700000     -33.70300000     -72.97770000
C      -42.93590000     -34.12820000     -73.50420000
C      -43.47350000     -35.28450000     -72.91400000
C      -42.92660000     -35.87350000     -71.81430000
C      -41.74390000     -35.38910000     -71.26090000
C      -41.09350000     -34.29550000     -71.84160000
H      -41.11380000     -32.93950000     -73.49460000
H      -44.34060000     -35.80630000     -73.38310000
H      -41.38750000     -35.87990000     -70.42440000
H      -40.05490000     -33.96440000     -71.48040000
C      -43.51040000     -37.07880000     -71.20510000
H      -43.25430000     -37.22520000     -70.13540000
H      -43.22420000     -37.95290000     -71.85090000
C      -43.59950000     -33.53180000     -74.75080000
H      -42.75440000     -33.48880000     -75.43270000
H      -44.31810000     -34.20870000     -75.33040000
S      -45.31060000     -37.14940000     -71.20150000
S      -44.21380000     -31.80720000     -74.64700000
C      -45.85440000     -35.58410000     -70.44070000
H      -46.22780000     -35.77420000     -69.39740000
H      -44.99930000     -34.88910000     -70.25820000
C      -45.38810000     -31.65760000     -73.16530000
H      -46.31690000     -32.31290000     -73.34570000
H      -45.70070000     -30.62620000     -73.23630000
C      -44.76090000     -31.92300000     -71.80590000
H      -44.29810000     -32.93670000     -71.78310000
H      -43.95250000     -31.20240000     -71.81610000
C      -46.92570000     -34.79610000     -71.22270000
H      -47.76550000     -35.48420000     -71.35890000
H      -46.64130000     -34.45680000     -72.22630000
C      -47.42650000     -33.60040000     -70.36780000
C      -48.64080000     -33.66870000     -69.68370000
C      -46.82480000     -32.28150000     -70.10960000
H      -49.33670000     -34.51850000     -69.59680000
C      -47.56100000     -31.47730000     -69.23810000
C      -45.68750000     -31.53090000     -70.62350000
C      -45.56040000     -30.31640000     -70.07170000
S      -49.04990000     -32.27250000     -68.67490000
S      -46.84070000     -29.94600000     -68.95270000
H      -44.96890000     -29.45030000     -70.45180000
