40
Properties=species:S:1:pos:R:3 #=T CELL(abcABC):=T 1.889726e+02=T 90.00000=T Traj:=T positionsangstrom=T Step:=T 0=T Bead:=T pbc="F F F"
C      -41.75550000     -33.61950000     -73.02700000
C      -42.93260000     -34.08090000     -73.54690000
C      -43.53620000     -35.21760000     -72.89090000
C      -42.90540000     -35.85240000     -71.84080000
C      -41.65500000     -35.42510000     -71.41350000
C      -41.06510000     -34.31660000     -72.03600000
H      -41.31950000     -32.69690000     -73.37430000
H      -44.54450000     -35.61060000     -73.27550000
H      -41.13350000     -35.98720000     -70.60450000
H      -40.17370000     -33.85920000     -71.61550000
C      -43.57320000     -37.10740000     -71.24630000
H      -43.07500000     -37.43870000     -70.36540000
H      -43.43740000     -37.89180000     -71.94730000
C      -43.60950000     -33.47370000     -74.70530000
H      -43.03530000     -33.54580000     -75.65060000
H      -44.56270000     -33.97360000     -74.83380000
S      -45.45630000     -37.12950000     -71.06050000
S      -44.02850000     -31.70230000     -74.41620000
C      -45.83740000     -35.46960000     -70.31560000
H      -46.26890000     -35.46060000     -69.28970000
H      -44.93880000     -34.88440000     -70.27490000
C      -45.36090000     -31.85710000     -73.16910000
H      -46.02420000     -32.64460000     -73.42400000
H      -45.87360000     -30.88080000     -73.14780000
C      -44.81310000     -32.15230000     -71.76010000
H      -44.68510000     -33.20340000     -71.63560000
H      -43.84610000     -31.67510000     -71.51580000
C      -46.87210000     -34.76560000     -71.15480000
H      -47.69950000     -35.37090000     -71.44010000
H      -46.38740000     -34.54980000     -72.15060000
C      -47.44380000     -33.60050000     -70.45430000
C      -48.60430000     -33.72920000     -69.68550000
C      -46.89700000     -32.25230000     -70.25830000
H      -49.31020000     -34.56550000     -69.69040000
C      -47.66280000     -31.43660000     -69.45030000
C      -45.72050000     -31.59290000     -70.69790000
C      -45.52060000     -30.42310000     -70.12120000
S      -49.05290000     -32.24380000     -68.75220000
S      -46.80550000     -29.97670000     -68.97350000
H      -44.66240000     -29.78460000     -70.22830000
