40
Properties=species:S:1:pos:R:3 #=T CELL(abcABC):=T 1.889726e+02=T 90.00000=T Traj:=T positionsangstrom=T Step:=T 0=T Bead:=T pbc="F F F"
C      -41.43380000     -33.55210000     -69.52180000
C      -42.38930000     -32.50250000     -69.61290000
C      -42.65130000     -31.91840000     -70.80850000
C      -42.09750000     -32.39310000     -72.02000000
C      -41.21650000     -33.44900000     -71.98310000
C      -40.82100000     -34.01040000     -70.68600000
H      -41.18450000     -34.03050000     -68.56780000
H      -43.37650000     -31.06890000     -70.77550000
H      -40.79140000     -33.95740000     -72.86950000
H      -40.16120000     -34.87930000     -70.66410000
C      -42.18750000     -31.62090000     -73.29000000
H      -41.33980000     -32.01800000     -73.93790000
H      -42.20310000     -30.55660000     -73.00300000
C      -42.93700000     -32.00220000     -68.31860000
H      -42.94180000     -32.82060000     -67.69520000
H      -42.43720000     -31.11200000     -67.84820000
S      -43.57720000     -31.93500000     -74.49800000
S      -44.65460000     -31.24440000     -68.41660000
C      -45.22330000     -31.98610000     -73.70710000
H      -45.07110000     -31.44450000     -72.72360000
H      -45.91580000     -31.37430000     -74.40670000
C      -45.73130000     -32.73930000     -68.71130000
H      -46.73690000     -32.46050000     -68.57880000
H      -45.62620000     -33.40390000     -67.78910000
C      -45.51790000     -33.56190000     -70.02970000
H      -45.44060000     -32.75340000     -70.75500000
H      -44.54320000     -34.11100000     -70.04710000
C      -45.67520000     -33.45510000     -73.32050000
H      -44.87070000     -33.90420000     -72.63650000
H      -45.46620000     -34.01590000     -74.26140000
C      -47.04290000     -33.96470000     -72.93100000
C      -48.01670000     -34.29150000     -73.89360000
C      -47.33940000     -34.42250000     -71.62620000
H      -47.96930000     -34.07090000     -74.96570000
C      -48.57970000     -35.10580000     -71.55140000
C      -46.67730000     -34.45150000     -70.33940000
C      -47.46260000     -35.00180000     -69.34480000
S      -49.38720000     -35.10320000     -73.09510000
S      -48.99990000     -35.65110000     -69.93180000
H      -47.26670000     -35.19700000     -68.22200000
