40
Properties=species:S:1:pos:R:3 #=T CELL(abcABC):=T 1.889726e+02=T 90.00000=T Traj:=T positionsangstrom=T Step:=T 0=T Bead:=T pbc="F F F"
C      -41.45900000     -33.97620000     -72.85750000
C      -42.71950000     -34.29930000     -73.41360000
C      -43.43940000     -35.44200000     -72.89630000
C      -43.02210000     -36.05190000     -71.69150000
C      -41.79710000     -35.57770000     -71.12580000
C      -41.02670000     -34.61590000     -71.71140000
H      -40.85460000     -33.29990000     -73.41830000
H      -44.35450000     -35.66160000     -73.42970000
H      -41.33610000     -36.00990000     -70.25280000
H      -40.15280000     -34.33790000     -71.13170000
C      -43.76950000     -37.20850000     -71.00540000
H      -43.54750000     -37.41220000     -69.96490000
H      -43.41200000     -38.12990000     -71.51610000
C      -43.30750000     -33.63650000     -74.65370000
H      -42.58150000     -33.65620000     -75.50920000
H      -44.16420000     -34.30050000     -74.97810000
S      -45.59090000     -37.02640000     -71.24180000
S      -43.90640000     -31.89910000     -74.49020000
C      -45.94430000     -35.25530000     -70.71830000
H      -45.98680000     -35.22760000     -69.60970000
H      -45.01110000     -34.74190000     -71.03490000
C      -45.33390000     -31.82370000     -73.20820000
H      -46.12420000     -32.50120000     -73.47760000
H      -45.74580000     -30.83220000     -73.34170000
C      -44.78590000     -32.02960000     -71.77810000
H      -44.51620000     -33.04310000     -71.41390000
H      -43.85010000     -31.45930000     -71.69600000
C      -47.10170000     -34.61590000     -71.35940000
H      -47.92750000     -35.35710000     -71.44640000
H      -46.92560000     -34.36740000     -72.37440000
C      -47.58280000     -33.41060000     -70.48670000
C      -48.64600000     -33.61560000     -69.62180000
C      -46.91030000     -32.11050000     -70.31790000
H      -49.35290000     -34.43760000     -69.61430000
C      -47.58880000     -31.40540000     -69.33290000
C      -45.77240000     -31.40110000     -70.81330000
C      -45.56950000     -30.20900000     -70.15090000
S      -48.98510000     -32.18810000     -68.67940000
S      -46.87190000     -29.80840000     -69.02580000
H      -44.64030000     -29.66860000     -70.30110000
