40
Properties=species:S:1:pos:R:3 #=T CELL(abcABC):=T 1.889726e+02=T 90.00000=T Traj:=T positionsangstrom=T Step:=T 0=T Bead:=T pbc="F F F"
C      -41.56110000     -33.93070000     -72.92200000
C      -42.77540000     -34.32750000     -73.48950000
C      -43.57090000     -35.35800000     -72.87560000
C      -43.18060000     -35.87200000     -71.66850000
C      -41.96110000     -35.46550000     -71.06660000
C      -41.17750000     -34.51240000     -71.69270000
H      -40.93490000     -33.06590000     -73.25430000
H      -44.52650000     -35.55470000     -73.35040000
H      -41.74360000     -35.77440000     -70.04920000
H      -40.19260000     -34.10900000     -71.34060000
C      -43.98620000     -37.03050000     -70.97550000
H      -43.77400000     -36.88560000     -69.89330000
H      -43.64230000     -38.04540000     -71.22330000
C      -43.33690000     -33.61140000     -74.72540000
H      -42.53530000     -33.60940000     -75.51790000
H      -44.33130000     -34.05540000     -75.00850000
S      -45.78570000     -37.22530000     -71.33870000
S      -43.62100000     -31.79030000     -74.43810000
C      -46.74850000     -35.93550000     -70.38050000
H      -47.64700000     -36.44150000     -70.04760000
H      -46.15780000     -35.71130000     -69.45490000
C      -44.98770000     -31.86940000     -73.26870000
H      -45.46700000     -32.84720000     -73.43640000
H      -45.68590000     -31.10580000     -73.58450000
C      -44.50890000     -31.91360000     -71.80180000
H      -44.18980000     -32.91660000     -71.46620000
H      -43.67010000     -31.25450000     -71.64080000
C      -46.92280000     -34.65540000     -71.23990000
H      -47.78600000     -34.68810000     -71.95790000
H      -46.04420000     -34.44970000     -71.86240000
C      -47.31250000     -33.48140000     -70.31120000
C      -48.46570000     -33.61700000     -69.59840000
C      -46.79110000     -32.13640000     -70.26620000
H      -49.03900000     -34.53590000     -69.44160000
C      -47.58660000     -31.30380000     -69.50160000
C      -45.61760000     -31.41090000     -70.80180000
C      -45.50530000     -30.18170000     -70.17830000
S      -48.96990000     -32.15460000     -68.70380000
S      -46.84230000     -29.77960000     -69.14650000
H      -44.80620000     -29.36490000     -70.45160000
