40
Properties=species:S:1:pos:R:3 #=T CELL(abcABC):=T 1.889726e+02=T 90.00000=T Traj:=T positionsangstrom=T Step:=T 0=T Bead:=T pbc="F F F"
C      -41.85180000     -33.67790000     -69.43680000
C      -42.56330000     -32.45370000     -69.67370000
C      -42.38910000     -31.94330000     -70.91740000
C      -41.80280000     -32.62300000     -72.00030000
C      -41.21310000     -33.82620000     -71.78400000
C      -41.24760000     -34.30290000     -70.47880000
H      -41.94760000     -34.19820000     -68.52700000
H      -42.81500000     -30.90530000     -71.10980000
H      -40.62570000     -34.31300000     -72.56350000
H      -40.75800000     -35.25130000     -70.26490000
C      -41.84660000     -31.98710000     -73.43190000
H      -41.14870000     -32.47740000     -74.03900000
H      -41.56640000     -30.96320000     -73.30400000
C      -43.20070000     -31.66370000     -68.54640000
H      -43.15930000     -32.22080000     -67.65980000
H      -42.59360000     -30.75660000     -68.32490000
S      -43.46760000     -31.90750000     -74.40460000
S      -44.90220000     -31.20400000     -68.83480000
C      -44.75410000     -32.47150000     -73.24770000
H      -44.69050000     -32.00980000     -72.29490000
H      -45.64990000     -31.95870000     -73.73230000
C      -45.65760000     -32.81360000     -68.29960000
H      -46.59570000     -32.64360000     -67.78270000
H      -45.08250000     -33.10080000     -67.41550000
C      -45.66950000     -33.90760000     -69.47160000
H      -45.04890000     -33.55990000     -70.32540000
H      -45.14730000     -34.80250000     -69.14690000
C      -45.03230000     -33.98840000     -72.92040000
H      -44.30830000     -34.21730000     -72.07740000
H      -44.65500000     -34.59430000     -73.79010000
C      -46.55690000     -34.21700000     -72.74210000
C      -47.38020000     -34.38760000     -73.85710000
C      -47.35270000     -34.33510000     -71.47950000
H      -46.99270000     -34.46120000     -74.89620000
C      -48.67050000     -34.69160000     -71.73590000
C      -47.03220000     -34.31300000     -70.07360000
C      -48.08500000     -34.79530000     -69.28080000
S      -49.09720000     -34.81320000     -73.43990000
S      -49.48990000     -35.13080000     -70.26160000
H      -48.07470000     -35.21080000     -68.32610000
