40
Properties=species:S:1:pos:R:3 #=T CELL(abcABC):=T 1.889726e+02=T 90.00000=T Traj:=T positionsangstrom=T Step:=T 0=T Bead:=T pbc="F F F"
C      -43.93690000     -33.50960000     -69.24320000
C      -45.21130000     -32.97920000     -69.04730000
C      -46.37260000     -33.78630000     -69.29310000
C      -46.22760000     -35.04990000     -69.83060000
C      -44.93230000     -35.54030000     -70.16360000
C      -43.77410000     -34.80740000     -69.81680000
H      -43.01830000     -32.96870000     -69.11850000
H      -47.34120000     -33.33170000     -69.06340000
H      -44.86190000     -36.39270000     -70.83250000
H      -42.73110000     -35.19490000     -69.96120000
C      -47.41210000     -35.94350000     -70.08460000
H      -47.78760000     -36.42770000     -69.14750000
H      -47.21570000     -36.76050000     -70.75020000
C      -45.38520000     -31.63270000     -68.40230000
H      -46.44050000     -31.25870000     -68.64890000
H      -45.14260000     -31.67710000     -67.33310000
S      -48.92380000     -35.07250000     -70.85570000
S      -44.36120000     -30.27550000     -69.18580000
C      -48.43230000     -35.03420000     -72.66110000
H      -48.05490000     -36.02090000     -72.86790000
H      -49.34540000     -34.94390000     -73.13190000
C      -45.32180000     -29.76280000     -70.66210000
H      -44.57200000     -29.24270000     -71.32960000
H      -46.10660000     -29.01050000     -70.21080000
C      -45.93320000     -30.89200000     -71.47820000
H      -46.53380000     -31.58410000     -70.83360000
H      -46.51190000     -30.38600000     -72.29560000
C      -47.52530000     -33.79540000     -72.98230000
H      -47.84830000     -32.94640000     -72.27910000
H      -47.83310000     -33.46690000     -73.98440000
C      -46.00390000     -33.98790000     -73.14670000
C      -45.56650000     -35.19280000     -73.63380000
C      -44.96440000     -33.05790000     -72.82590000
H      -46.41450000     -35.86420000     -73.99830000
C      -43.73520000     -33.57710000     -73.18440000
C      -44.82410000     -31.77930000     -72.15620000
C      -43.49100000     -31.47890000     -71.96920000
S      -43.80520000     -35.24530000     -73.66980000
S      -42.34100000     -32.66460000     -72.72900000
H      -42.99310000     -30.77710000     -71.37410000
