40
Properties=species:S:1:pos:R:3 #=T CELL(abcABC):=T 1.889726e+02=T 90.00000=T Traj:=T positionsangstrom=T Step:=T 0=T Bead:=T pbc="F F F"
C      -41.64750000     -34.20880000     -72.42360000
C      -42.68000000     -34.36910000     -73.32920000
C      -43.63030000     -35.41780000     -73.10450000
C      -43.57010000     -36.20370000     -71.95230000
C      -42.49690000     -35.98730000     -71.02630000
C      -41.52870000     -35.07850000     -71.28820000
H      -40.86050000     -33.48500000     -72.74830000
H      -44.39270000     -35.63340000     -73.82550000
H      -42.41450000     -36.74980000     -70.26290000
H      -40.70830000     -34.91520000     -70.68640000
C      -44.48020000     -37.34170000     -71.74140000
H      -44.18880000     -37.75120000     -70.77290000
H      -44.25640000     -38.10900000     -72.52420000
C      -42.75030000     -33.46770000     -74.52520000
H      -41.78340000     -33.26250000     -74.86980000
H      -43.43440000     -33.85970000     -75.31930000
S      -46.35980000     -37.10410000     -71.64720000
S      -43.40200000     -31.74880000     -74.13210000
C      -46.52950000     -35.31460000     -71.63680000
H      -45.99910000     -34.92620000     -72.54770000
H      -47.57990000     -35.07480000     -71.66030000
C      -44.75280000     -31.89460000     -72.77840000
H      -45.31480000     -32.84730000     -72.93390000
H      -45.49840000     -31.17490000     -73.06130000
C      -44.22980000     -31.68930000     -71.35150000
H      -43.94270000     -32.68680000     -70.92190000
H      -43.43360000     -30.97040000     -71.21450000
C      -46.02190000     -34.58430000     -70.42700000
H      -44.99070000     -34.30290000     -70.61650000
H      -46.00820000     -35.32730000     -69.58010000
C      -46.94380000     -33.48650000     -70.06420000
C      -48.17620000     -33.72130000     -69.48100000
C      -46.57640000     -32.05290000     -70.14580000
H      -48.64990000     -34.59010000     -69.31400000
C      -47.54440000     -31.26980000     -69.52340000
C      -45.40410000     -31.21380000     -70.43650000
C      -45.63660000     -29.91390000     -70.13620000
S      -48.93370000     -32.25420000     -68.96720000
S      -47.16780000     -29.60620000     -69.40030000
H      -44.86050000     -29.09180000     -70.18730000
