40
Properties=species:S:1:pos:R:3 #=T CELL(abcABC):=T 1.889726e+02=T 90.00000=T Traj:=T positionsangstrom=T Step:=T 0=T Bead:=T pbc="F F F"
C      -41.77360000     -34.21010000     -72.16650000
C      -42.74690000     -34.36630000     -73.19680000
C      -43.63650000     -35.45080000     -73.17440000
C      -43.60020000     -36.29860000     -72.01250000
C      -42.65160000     -36.14300000     -71.04110000
C      -41.69570000     -35.12310000     -71.14650000
H      -41.23860000     -33.28520000     -72.24890000
H      -44.36450000     -35.56820000     -74.00620000
H      -42.68130000     -36.76250000     -70.19490000
H      -40.98790000     -34.97010000     -70.34480000
C      -44.48040000     -37.50110000     -71.91020000
H      -44.18700000     -38.19690000     -71.13470000
H      -44.36280000     -38.14550000     -72.77780000
C      -42.85240000     -33.48410000     -74.41000000
H      -42.00110000     -33.41270000     -75.14850000
H      -43.65050000     -33.93310000     -75.01200000
S      -46.27150000     -37.13690000     -71.94250000
S      -43.23180000     -31.73150000     -74.04060000
C      -46.63090000     -35.29280000     -71.61510000
H      -46.25690000     -34.73760000     -72.48120000
H      -47.73160000     -35.27650000     -71.71170000
C      -44.68930000     -31.84410000     -72.91900000
H      -45.30790000     -32.70810000     -73.08970000
H      -45.26270000     -30.88930000     -73.16210000
C      -44.32110000     -31.71370000     -71.41000000
H      -44.00920000     -32.68240000     -70.97050000
H      -43.47840000     -31.01670000     -71.36670000
C      -46.05560000     -34.65640000     -70.37690000
H      -45.05750000     -34.34270000     -70.52730000
H      -46.09880000     -35.35300000     -69.50870000
C      -46.88750000     -33.45980000     -69.91410000
C      -48.14820000     -33.66830000     -69.32930000
C      -46.46110000     -32.03140000     -69.94370000
H      -48.63930000     -34.57370000     -69.19820000
C      -47.43930000     -31.24450000     -69.32960000
C      -45.46220000     -31.20730000     -70.55500000
C      -45.69620000     -29.88140000     -70.42890000
S      -48.92340000     -32.14340000     -68.91630000
S      -47.13640000     -29.56030000     -69.41020000
H      -45.05480000     -29.08940000     -70.83810000
