40
Properties=species:S:1:pos:R:3 #=T CELL(abcABC):=T 1.889726e+02=T 90.00000=T Traj:=T positionsangstrom=T Step:=T 0=T Bead:=T pbc="F F F"
C      -42.12600000     -33.49590000     -68.99530000
C      -42.52700000     -32.14340000     -69.18890000
C      -42.41910000     -31.56380000     -70.47420000
C      -42.09530000     -32.35100000     -71.63830000
C      -41.74780000     -33.65390000     -71.43810000
C      -41.82580000     -34.25520000     -70.14370000
H      -42.22360000     -34.03050000     -68.01080000
H      -42.38280000     -30.46280000     -70.53470000
H      -41.82820000     -34.28690000     -72.35600000
H      -41.63610000     -35.34170000     -69.97320000
C      -42.16490000     -31.65620000     -73.00410000
H      -41.26740000     -31.22990000     -73.48030000
H      -42.82920000     -30.80030000     -72.86420000
C      -42.99390000     -31.45420000     -67.93210000
H      -42.58820000     -32.05910000     -67.04130000
H      -42.83700000     -30.40170000     -67.69070000
S      -42.84480000     -32.91120000     -74.20020000
S      -44.86420000     -31.53330000     -67.92940000
C      -44.63220000     -32.73990000     -73.79190000
H      -44.72350000     -32.19280000     -72.85470000
H      -45.07670000     -32.14510000     -74.55390000
C      -45.23650000     -33.18170000     -68.73210000
H      -46.16380000     -33.41150000     -68.19860000
H      -44.43840000     -33.85990000     -68.45590000
C      -45.53620000     -33.31990000     -70.25530000
H      -45.59320000     -32.31810000     -70.76090000
H      -44.62700000     -33.70370000     -70.74780000
C      -45.32630000     -34.11060000     -73.75750000
H      -44.69300000     -34.80640000     -73.12180000
H      -45.38600000     -34.38100000     -74.87160000
C      -46.70400000     -34.32510000     -73.32670000
C      -47.64970000     -34.60760000     -74.25440000
C      -47.28580000     -34.33770000     -71.98240000
H      -47.61840000     -34.46530000     -75.34230000
C      -48.61310000     -34.77670000     -71.98790000
C      -46.82190000     -34.01450000     -70.57870000
C      -47.86970000     -34.24450000     -69.67320000
S      -49.33800000     -34.79620000     -73.59790000
S      -49.34450000     -34.74770000     -70.42410000
H      -47.80680000     -33.88720000     -68.64930000
