40
Properties=species:S:1:pos:R:3 #=T CELL(abcABC):=T 1.889726e+02=T 90.00000=T Traj:=T positionsangstrom=T Step:=T 0=T Bead:=T pbc="F F F"
C      -41.82330000     -33.55150000     -68.84270000
C      -42.41990000     -32.31460000     -69.09430000
C      -42.55510000     -31.78500000     -70.41190000
C      -42.13570000     -32.46800000     -71.56050000
C      -41.64930000     -33.78620000     -71.37340000
C      -41.43170000     -34.22980000     -70.05060000
H      -41.59570000     -33.94200000     -67.88530000
H      -43.10280000     -30.82180000     -70.35350000
H      -41.16660000     -34.33410000     -72.19210000
H      -40.79020000     -35.08050000     -69.81600000
C      -42.09100000     -31.78580000     -72.91480000
H      -41.09800000     -31.76570000     -73.32120000
H      -42.37270000     -30.74850000     -72.82380000
C      -43.00730000     -31.42450000     -68.01470000
H      -42.59610000     -31.67320000     -67.09390000
H      -42.89560000     -30.37660000     -68.13640000
S      -43.00980000     -32.68820000     -74.22370000
S      -44.81860000     -31.61490000     -68.04580000
C      -44.82050000     -32.82500000     -73.62910000
H      -44.77730000     -32.44920000     -72.55910000
H      -45.32510000     -32.10440000     -74.28110000
C      -45.31640000     -33.28340000     -68.73720000
H      -46.06760000     -33.70010000     -68.05810000
H      -44.47820000     -33.95150000     -68.64230000
C      -45.62150000     -33.12780000     -70.23090000
H      -45.76890000     -32.07140000     -70.41520000
H      -44.75190000     -33.58040000     -70.82410000
C      -45.31030000     -34.26950000     -73.72130000
H      -44.83770000     -34.82990000     -72.97840000
H      -45.13030000     -34.77980000     -74.66520000
C      -46.77010000     -34.27440000     -73.32920000
C      -47.63680000     -34.60650000     -74.29350000
C      -47.33410000     -34.25280000     -71.97890000
H      -47.66370000     -34.61860000     -75.40480000
C      -48.68930000     -34.60370000     -72.01690000
C      -46.94620000     -33.77630000     -70.67750000
C      -47.95130000     -33.94220000     -69.72340000
S      -49.25760000     -34.98300000     -73.69850000
S      -49.37240000     -34.64560000     -70.43430000
H      -47.95170000     -33.86420000     -68.68680000
