40
Properties=species:S:1:pos:R:3 #=T CELL(abcABC):=T 1.889726e+02=T 90.00000=T Traj:=T positionsangstrom=T Step:=T 0=T Bead:=T pbc="F F F"
C      -41.79250000     -34.47650000     -71.73010000
C      -42.52260000     -34.34310000     -72.90520000
C      -43.67180000     -35.12020000     -73.15350000
C      -44.04570000     -36.15140000     -72.27950000
C      -43.23740000     -36.39370000     -71.11810000
C      -42.13530000     -35.56680000     -70.88750000
H      -40.79340000     -34.00740000     -71.67430000
H      -44.32470000     -34.90270000     -74.02800000
H      -43.51770000     -37.13350000     -70.38670000
H      -41.58950000     -35.93980000     -70.02240000
C      -45.23330000     -37.04010000     -72.58120000
H      -45.36600000     -37.85030000     -71.81130000
H      -45.03400000     -37.61420000     -73.49160000
C      -42.07490000     -33.35790000     -73.93040000
H      -41.00230000     -33.46150000     -74.16070000
H      -42.69560000     -33.56690000     -74.80240000
S      -46.84740000     -36.22990000     -72.94730000
S      -42.22950000     -31.59120000     -73.30350000
C      -47.46230000     -35.64300000     -71.30200000
H      -48.28790000     -34.99200000     -71.53470000
H      -47.97300000     -36.42410000     -70.72180000
C      -44.09600000     -31.33860000     -72.95390000
H      -44.49020000     -31.39770000     -73.92500000
H      -44.10560000     -30.28600000     -72.67550000
C      -44.69850000     -32.27660000     -71.89180000
H      -45.14740000     -33.20530000     -72.35370000
H      -43.91660000     -32.68120000     -71.19510000
C      -46.45550000     -34.90030000     -70.54800000
H      -45.83210000     -34.50420000     -71.26910000
H      -45.80790000     -35.48450000     -69.91880000
C      -46.98320000     -33.67790000     -69.84810000
C      -47.91540000     -33.73860000     -68.85290000
C      -46.64940000     -32.27820000     -70.19150000
H      -48.34580000     -34.56560000     -68.34700000
C      -47.36090000     -31.42880000     -69.36930000
C      -45.78640000     -31.57150000     -71.09500000
C      -45.84710000     -30.18730000     -70.86790000
S      -48.41730000     -32.19770000     -68.19040000
S      -46.94550000     -29.75780000     -69.63640000
H      -45.23720000     -29.43060000     -71.32410000
