40
Properties=species:S:1:pos:R:3 #=T CELL(abcABC):=T 1.889726e+02=T 90.00000=T Traj:=T positionsangstrom=T Step:=T 0=T Bead:=T pbc="F F F"
C      -42.17750000     -34.76450000     -71.68810000
C      -42.82270000     -34.31550000     -72.79950000
C      -43.84380000     -35.12500000     -73.38430000
C      -44.22330000     -36.34650000     -72.79870000
C      -43.45090000     -36.80070000     -71.72220000
C      -42.43730000     -36.00060000     -71.15770000
H      -41.54670000     -34.13490000     -71.03730000
H      -44.39300000     -34.73500000     -74.26690000
H      -43.72350000     -37.76290000     -71.28960000
H      -41.73570000     -36.29040000     -70.35720000
C      -45.28790000     -37.24180000     -73.45840000
H      -45.04960000     -38.31170000     -73.17430000
H      -45.36900000     -37.19990000     -74.57310000
C      -42.61880000     -32.96290000     -73.52440000
H      -42.04460000     -33.12980000     -74.41340000
H      -43.60490000     -32.69440000     -73.92210000
S      -47.00170000     -36.68710000     -72.92080000
S      -41.75310000     -31.60290000     -72.66550000
C      -46.67640000     -35.85830000     -71.28340000
H      -47.63840000     -35.71190000     -70.84790000
H      -45.97420000     -36.52780000     -70.79420000
C      -43.03170000     -30.85480000     -71.46600000
H      -43.27570000     -29.78730000     -71.81370000
H      -42.53260000     -30.95530000     -70.48660000
C      -44.40400000     -31.62800000     -71.45690000
H      -44.79860000     -31.65340000     -72.49140000
H      -44.28950000     -32.68510000     -71.13560000
C      -46.15840000     -34.42730000     -71.39690000
H      -46.32950000     -34.15210000     -72.41290000
H      -45.03090000     -34.33140000     -71.24680000
C      -46.87890000     -33.47580000     -70.34540000
C      -47.93540000     -33.83480000     -69.49100000
C      -46.64370000     -32.05610000     -70.28310000
H      -48.40440000     -34.79170000     -69.56230000
C      -47.57790000     -31.40590000     -69.49710000
C      -45.59490000     -31.13530000     -70.65480000
C      -45.79090000     -29.80880000     -70.29190000
S      -48.65910000     -32.48620000     -68.62550000
S      -47.26230000     -29.65610000     -69.40400000
H      -45.13170000     -28.98830000     -70.28760000
