40
Properties=species:S:1:pos:R:3 #=T CELL(abcABC):=T 1.889726e+02=T 90.00000=T Traj:=T positionsangstrom=T Step:=T 0=T Bead:=T pbc="F F F"
C      -42.00850000     -34.82070000     -71.91030000
C      -42.64100000     -34.30990000     -73.03140000
C      -43.74710000     -34.99550000     -73.53870000
C      -44.15050000     -36.22230000     -72.96730000
C      -43.45940000     -36.71300000     -71.85580000
C      -42.38360000     -36.00650000     -71.32690000
H      -41.08890000     -34.42280000     -71.50620000
H      -44.36670000     -34.60110000     -74.36560000
H      -43.77690000     -37.65450000     -71.41950000
H      -41.73990000     -36.35270000     -70.47950000
C      -45.25890000     -37.06690000     -73.52340000
H      -45.08150000     -38.06630000     -73.22150000
H      -45.39420000     -36.93530000     -74.61810000
C      -42.24100000     -32.98350000     -73.62670000
H      -41.31180000     -33.01850000     -74.22610000
H      -43.09260000     -32.49120000     -74.16850000
S      -46.93490000     -36.68310000     -72.81980000
S      -41.71760000     -31.72190000     -72.32280000
C      -46.76180000     -35.86160000     -71.22900000
H      -47.77490000     -35.95550000     -70.80120000
H      -46.27740000     -36.57590000     -70.61460000
C      -43.17260000     -31.06110000     -71.34230000
H      -43.18490000     -29.96880000     -71.38150000
H      -43.05180000     -31.30420000     -70.28110000
C      -44.61080000     -31.63630000     -71.63720000
H      -44.96290000     -31.28360000     -72.61510000
H      -44.53030000     -32.69540000     -71.75590000
C      -46.27600000     -34.46320000     -71.21570000
H      -46.44480000     -34.10180000     -72.27450000
H      -45.24880000     -34.38400000     -70.99080000
C      -46.97190000     -33.51210000     -70.28130000
C      -48.12210000     -33.77750000     -69.61720000
C      -46.65240000     -32.05610000     -70.22750000
H      -48.46040000     -34.78000000     -69.33280000
C      -47.56360000     -31.36050000     -69.37920000
C      -45.63660000     -31.17720000     -70.68260000
C      -45.88920000     -29.85200000     -70.41610000
S      -48.84500000     -32.40490000     -68.75090000
S      -47.17700000     -29.69140000     -69.28520000
H      -45.22470000     -29.04410000     -70.74600000
