40
Properties=species:S:1:pos:R:3 #=T CELL(abcABC):=T 1.889726e+02=T 90.00000=T Traj:=T positionsangstrom=T Step:=T 0=T Bead:=T pbc="F F F"
C      -41.87460000     -34.88310000     -71.92800000
C      -42.60910000     -34.19960000     -72.94350000
C      -43.64520000     -34.89730000     -73.52640000
C      -44.10310000     -36.12560000     -73.05600000
C      -43.43700000     -36.69100000     -71.96430000
C      -42.31520000     -36.10280000     -71.37240000
H      -41.12860000     -34.34590000     -71.36330000
H      -44.22100000     -34.44510000     -74.31690000
H      -43.80810000     -37.61720000     -71.56340000
H      -42.07100000     -36.50260000     -70.40180000
C      -45.29400000     -36.80410000     -73.62040000
H      -45.08820000     -37.89950000     -73.80090000
H      -45.31160000     -36.43640000     -74.68360000
C      -42.17260000     -32.82550000     -73.45500000
H      -41.33110000     -32.93240000     -74.16880000
H      -42.91120000     -32.39700000     -74.05850000
S      -46.96270000     -36.63720000     -72.90420000
S      -41.67680000     -31.71450000     -72.13910000
C      -46.65910000     -36.06020000     -71.09960000
H      -47.63810000     -36.16120000     -70.52840000
H      -45.87550000     -36.57800000     -70.55250000
C      -43.30940000     -31.31860000     -71.21680000
H      -43.18710000     -30.29020000     -70.93290000
H      -43.08600000     -31.83260000     -70.25030000
C      -44.67440000     -31.62730000     -71.88560000
H      -44.96340000     -30.98080000     -72.71890000
H      -44.75870000     -32.65630000     -72.17840000
C      -46.26170000     -34.57780000     -71.04480000
H      -46.08510000     -34.14160000     -72.12390000
H      -45.27260000     -34.57230000     -70.64860000
C      -47.19520000     -33.55740000     -70.37450000
C      -48.38730000     -33.78480000     -69.70960000
C      -46.77510000     -32.09190000     -70.37480000
H      -48.92660000     -34.70250000     -69.36600000
C      -47.60190000     -31.33040000     -69.51440000
C      -45.72620000     -31.26680000     -70.78990000
C      -45.73140000     -29.94350000     -70.35470000
S      -48.92000000     -32.29510000     -68.77300000
S      -47.03730000     -29.77640000     -69.21680000
H      -45.13650000     -29.10440000     -70.74210000
