40
Properties=species:S:1:pos:R:3 #=T CELL(abcABC):=T 1.889726e+02=T 90.00000=T Traj:=T positionsangstrom=T Step:=T 0=T Bead:=T pbc="F F F"
C      -44.77790000     -35.67400000     -68.59550000
C      -44.94870000     -34.35140000     -68.03270000
C      -44.00670000     -33.35600000     -68.33040000
C      -42.93750000     -33.60300000     -69.24960000
C      -42.75480000     -34.88760000     -69.79310000
C      -43.68220000     -35.88780000     -69.46540000
H      -45.53870000     -36.37300000     -68.30070000
H      -44.24750000     -32.37960000     -67.98860000
H      -41.79020000     -35.04330000     -70.31850000
H      -43.58600000     -36.84710000     -69.95840000
C      -41.90730000     -32.54510000     -69.71640000
H      -40.84290000     -32.88400000     -69.76600000
H      -41.89890000     -31.77190000     -69.00500000
C      -46.23700000     -33.88490000     -67.38580000
H      -46.88480000     -34.71720000     -67.06400000
H      -46.04190000     -33.37060000     -66.49530000
S      -42.06480000     -31.78400000     -71.40670000
S      -47.19420000     -32.80330000     -68.47650000
C      -43.73670000     -30.86510000     -71.25750000
H      -43.67560000     -30.33010000     -70.23940000
H      -43.79100000     -30.13650000     -72.05460000
C      -47.39550000     -33.76720000     -69.98180000
H      -47.95580000     -34.66860000     -69.78010000
H      -46.41070000     -34.01230000     -70.38150000
C      -48.16450000     -32.97270000     -71.05970000
H      -49.24680000     -33.13690000     -70.88910000
H      -47.97330000     -31.92930000     -70.89210000
C      -45.01950000     -31.71550000     -71.37650000
H      -45.88770000     -31.05030000     -71.08680000
H      -44.96650000     -32.45350000     -70.51010000
C      -45.30090000     -32.46260000     -72.65360000
C      -44.32120000     -32.51750000     -73.65410000
C      -46.45070000     -33.19340000     -73.00530000
H      -43.38500000     -32.01330000     -73.62190000
C      -46.23960000     -33.87770000     -74.20870000
C      -47.69330000     -33.47160000     -72.35710000
C      -48.48670000     -34.29270000     -73.15800000
S      -44.83940000     -33.34780000     -75.10990000
S      -47.74120000     -34.76720000     -74.68250000
H      -49.46020000     -34.71560000     -72.86930000
