40
Properties=species:S:1:pos:R:3 #=T CELL(abcABC):=T 1.889726e+02=T 90.00000=T Traj:=T positionsangstrom=T Step:=T 0=T Bead:=T pbc="F F F"
C      -41.63460000     -32.59950000     -68.98850000
C      -42.27150000     -33.80790000     -69.15610000
C      -42.32410000     -34.32910000     -70.51640000
C      -41.83450000     -33.67910000     -71.67770000
C      -41.22020000     -32.41480000     -71.37970000
C      -41.10340000     -31.95220000     -70.08690000
H      -41.64860000     -32.14260000     -67.96750000
H      -42.87250000     -35.28390000     -70.65620000
H      -40.70800000     -31.88010000     -72.15680000
H      -40.66280000     -30.98980000     -70.02680000
C      -41.99320000     -34.42960000     -72.97930000
H      -42.66110000     -35.26730000     -72.74250000
H      -41.02690000     -34.79170000     -73.33850000
C      -42.97210000     -34.48090000     -68.00220000
H      -43.11140000     -35.54390000     -68.17090000
H      -42.47350000     -34.40810000     -67.07710000
S      -42.74180000     -33.51390000     -74.44870000
S      -44.59170000     -33.60380000     -67.59140000
C      -44.20690000     -32.69170000     -73.65950000
H      -43.93640000     -31.83600000     -73.08460000
H      -44.68260000     -32.28330000     -74.51170000
C      -45.43860000     -33.27480000     -69.15520000
H      -44.67250000     -33.15380000     -69.93660000
H      -45.94420000     -32.27360000     -69.04160000
C      -46.36210000     -34.33890000     -69.63300000
H      -45.82950000     -35.11410000     -70.25320000
H      -46.74780000     -34.82650000     -68.76720000
C      -45.16300000     -33.61340000     -72.91010000
H      -44.85140000     -33.74350000     -71.84500000
H      -45.19030000     -34.66290000     -73.28510000
C      -46.61950000     -33.21280000     -72.88350000
C      -47.26540000     -32.87980000     -74.10320000
C      -47.60070000     -33.51400000     -71.81510000
H      -46.78670000     -32.64000000     -75.03470000
C      -48.89430000     -33.21640000     -72.25590000
C      -47.58980000     -33.80090000     -70.41140000
C      -48.85490000     -33.65110000     -69.80510000
S      -49.01480000     -32.71520000     -73.90910000
S      -50.15160000     -33.19480000     -70.93870000
H      -49.16370000     -33.78660000     -68.87460000
