40
Properties=species:S:1:pos:R:3 #=T CELL(abcABC):=T 1.889726e+02=T 90.00000=T Traj:=T positionsangstrom=T Step:=T 0=T Bead:=T pbc="F F F"
C      -41.59090000     -32.57930000     -69.20320000
C      -42.27010000     -33.73570000     -69.36050000
C      -42.33820000     -34.37280000     -70.61080000
C      -41.75020000     -33.78430000     -71.77740000
C      -41.18130000     -32.52440000     -71.59700000
C      -41.06340000     -31.93450000     -70.35720000
H      -41.54130000     -32.11160000     -68.24260000
H      -42.88540000     -35.32650000     -70.70750000
H      -40.78820000     -31.98480000     -72.44600000
H      -40.51650000     -31.00170000     -70.24880000
C      -41.91470000     -34.44450000     -73.10300000
H      -42.37710000     -35.40840000     -72.97100000
H      -40.94450000     -34.62280000     -73.64800000
C      -42.94440000     -34.50050000     -68.20770000
H      -43.35280000     -35.48260000     -68.58460000
H      -42.40840000     -34.64010000     -67.31330000
S      -42.81980000     -33.42470000     -74.26410000
S      -44.38880000     -33.47550000     -67.67550000
C      -44.48120000     -32.80400000     -73.60760000
H      -44.38430000     -31.93060000     -72.90620000
H      -45.10660000     -32.51210000     -74.48530000
C      -45.45380000     -33.11080000     -69.17470000
H      -44.71510000     -32.82240000     -69.99850000
H      -46.05260000     -32.28970000     -68.91770000
C      -46.27380000     -34.36670000     -69.56800000
H      -45.68120000     -35.17370000     -70.03920000
H      -46.59240000     -34.82860000     -68.57700000
C      -45.31990000     -33.94890000     -72.89400000
H      -45.00410000     -33.96810000     -71.83530000
H      -45.13970000     -34.92160000     -73.31440000
C      -46.75720000     -33.49190000     -72.97700000
C      -47.48340000     -32.99120000     -74.10490000
C      -47.62060000     -33.49650000     -71.80380000
H      -47.05370000     -32.96300000     -75.09970000
C      -48.90570000     -33.01380000     -72.11440000
C      -47.53520000     -33.98650000     -70.34800000
C      -48.77060000     -33.78130000     -69.73770000
S      -49.13130000     -32.60490000     -73.72650000
S      -50.02850000     -33.11040000     -70.75810000
H      -48.96400000     -34.06530000     -68.74280000
