40
Properties=species:S:1:pos:R:3 #=T CELL(abcABC):=T 1.889726e+02=T 90.00000=T Traj:=T positionsangstrom=T Step:=T 0=T Bead:=T pbc="F F F"
C      -41.68250000     -32.53010000     -69.42690000
C      -42.39710000     -33.75920000     -69.52990000
C      -42.40140000     -34.41800000     -70.70630000
C      -41.73140000     -33.87900000     -71.89270000
C      -41.01440000     -32.68570000     -71.74370000
C      -40.95060000     -32.03100000     -70.46950000
H      -41.63670000     -32.02300000     -68.51920000
H      -42.83980000     -35.35590000     -70.75140000
H      -40.58160000     -32.15810000     -72.63260000
H      -40.30090000     -31.16590000     -70.37830000
C      -41.83660000     -34.43340000     -73.27400000
H      -42.33250000     -35.42360000     -73.34250000
H      -40.91380000     -34.51720000     -73.83990000
C      -42.99720000     -34.38600000     -68.28500000
H      -43.24770000     -35.40330000     -68.50570000
H      -42.18400000     -34.52650000     -67.52940000
S      -42.89260000     -33.14010000     -74.47490000
S      -44.37920000     -33.38760000     -67.62950000
C      -44.37430000     -32.81450000     -73.43380000
H      -43.92970000     -32.66830000     -72.46790000
H      -44.82960000     -31.90260000     -73.83670000
C      -45.38000000     -33.08050000     -69.18200000
H      -44.60710000     -32.66600000     -69.81160000
H      -46.07160000     -32.28430000     -68.99540000
C      -46.18990000     -34.37980000     -69.63610000
H      -45.61510000     -34.95100000     -70.33090000
H      -46.31890000     -34.91470000     -68.71590000
C      -45.40770000     -34.04130000     -73.22790000
H      -45.03940000     -34.72500000     -72.49010000
H      -45.38360000     -34.55660000     -74.20180000
C      -46.89160000     -33.64760000     -72.87230000
C      -47.58380000     -33.23720000     -73.98860000
C      -47.62100000     -33.51300000     -71.68640000
H      -47.20210000     -33.30050000     -74.99240000
C      -48.88620000     -33.03130000     -71.91200000
C      -47.48410000     -33.95810000     -70.25820000
C      -48.61160000     -33.72910000     -69.49900000
S      -49.22250000     -32.69690000     -73.61350000
S      -50.01020000     -33.12200000     -70.47470000
H      -48.69160000     -33.87500000     -68.41590000
