40
Properties=species:S:1:pos:R:3 #=T CELL(abcABC):=T 1.889726e+02=T 90.00000=T Traj:=T positionsangstrom=T Step:=T 0=T Bead:=T pbc="F F F"
C      -41.01810000     -32.62040000     -69.65720000
C      -42.06040000     -33.56310000     -69.81340000
C      -42.36810000     -34.02000000     -71.07690000
C      -41.73660000     -33.49960000     -72.25550000
C      -40.83840000     -32.43890000     -72.10070000
C      -40.41260000     -32.09130000     -70.80520000
H      -40.76290000     -32.26420000     -68.61490000
H      -42.91440000     -34.96000000     -71.26850000
H      -40.34360000     -32.04910000     -72.98940000
H      -39.58020000     -31.40660000     -70.61440000
C      -42.06720000     -34.14750000     -73.51830000
H      -42.33570000     -35.21830000     -73.51370000
H      -41.15210000     -34.04630000     -74.13470000
C      -42.75570000     -34.11890000     -68.61100000
H      -43.16640000     -35.11180000     -68.93570000
H      -42.07890000     -34.42230000     -67.83230000
S      -43.34530000     -33.05160000     -74.37740000
S      -44.04160000     -33.03260000     -67.85250000
C      -44.77880000     -32.95380000     -73.26360000
H      -44.43530000     -32.74890000     -72.22750000
H      -45.34790000     -32.08830000     -73.58710000
C      -45.15520000     -33.02630000     -69.24830000
H      -44.59500000     -32.67490000     -70.17940000
H      -45.72120000     -32.11850000     -69.05330000
C      -45.95520000     -34.25200000     -69.49190000
H      -45.33150000     -34.87060000     -70.13600000
H      -46.20800000     -34.75130000     -68.50160000
C      -45.70820000     -34.20560000     -73.19340000
H      -45.29010000     -34.82290000     -72.34330000
H      -45.75360000     -34.78050000     -74.12370000
C      -47.12280000     -33.84810000     -72.90840000
C      -48.00000000     -33.62720000     -73.93900000
C      -47.75910000     -33.77790000     -71.56020000
H      -47.86590000     -33.78860000     -74.98970000
C      -49.12660000     -33.39130000     -71.65030000
C      -47.31410000     -33.98290000     -70.17480000
C      -48.37660000     -33.85730000     -69.34290000
S      -49.60520000     -33.13270000     -73.26740000
S      -49.86120000     -33.19150000     -70.05180000
H      -48.31870000     -33.90570000     -68.28310000
