40
Properties=species:S:1:pos:R:3 #=T CELL(abcABC):=T 1.889726e+02=T 90.00000=T Traj:=T positionsangstrom=T Step:=T 0=T Bead:=T pbc="F F F"
C      -40.84290000     -32.53080000     -69.68670000
C      -41.91180000     -33.45860000     -69.79850000
C      -42.41880000     -33.89390000     -71.06430000
C      -41.81640000     -33.44720000     -72.24060000
C      -40.65380000     -32.67870000     -72.08460000
C      -40.11970000     -32.27380000     -70.85640000
H      -40.65450000     -32.11360000     -68.70670000
H      -43.29640000     -34.46350000     -71.16150000
H      -40.10490000     -32.43880000     -73.05330000
H      -39.24820000     -31.66490000     -70.84070000
C      -42.26370000     -33.98610000     -73.60800000
H      -42.69610000     -34.98590000     -73.53580000
H      -41.43480000     -34.11610000     -74.27900000
C      -42.52200000     -34.01630000     -68.58270000
H      -42.86510000     -35.04720000     -68.67020000
H      -41.80520000     -34.02280000     -67.72560000
S      -43.56610000     -32.97730000     -74.55020000
S      -43.96960000     -32.86850000     -68.03760000
C      -44.96480000     -32.90770000     -73.27250000
H      -44.67270000     -32.48950000     -72.27570000
H      -45.62060000     -32.17620000     -73.75630000
C      -45.22240000     -32.90630000     -69.34690000
H      -44.79570000     -32.51820000     -70.25510000
H      -46.05450000     -32.26900000     -69.05480000
C      -45.91610000     -34.26370000     -69.66850000
H      -45.37190000     -34.75600000     -70.50470000
H      -45.89150000     -34.89730000     -68.78980000
C      -45.69040000     -34.25550000     -73.11350000
H      -45.29460000     -34.83740000     -72.29690000
H      -45.66080000     -34.76290000     -74.10360000
C      -47.14530000     -33.95450000     -72.76780000
C      -48.04870000     -33.64700000     -73.74130000
C      -47.74650000     -33.89210000     -71.44450000
H      -47.92580000     -33.38940000     -74.74700000
C      -49.11230000     -33.62830000     -71.53640000
C      -47.31510000     -33.98860000     -70.11190000
C      -48.25210000     -33.55890000     -69.21860000
S      -49.64260000     -33.39920000     -73.15620000
S      -49.88140000     -33.25780000     -69.96120000
H      -48.28120000     -33.67960000     -68.17320000
