40
Properties=species:S:1:pos:R:3 #=T CELL(abcABC):=T 1.889726e+02=T 90.00000=T Traj:=T positionsangstrom=T Step:=T 0=T Bead:=T pbc="F F F"
C      -40.61130000     -32.97290000     -70.14240000
C      -41.83820000     -33.69400000     -70.19970000
C      -42.48370000     -34.01770000     -71.37850000
C      -41.91570000     -33.68350000     -72.62180000
C      -40.75480000     -32.92010000     -72.57830000
C      -40.07780000     -32.63460000     -71.38760000
H      -40.11630000     -32.81250000     -69.21790000
H      -43.53360000     -34.43270000     -71.38330000
H      -40.20160000     -32.74540000     -73.51180000
H      -39.04630000     -32.26020000     -71.37100000
C      -42.59990000     -34.03090000     -73.93270000
H      -43.15700000     -35.01400000     -73.91820000
H      -41.94200000     -34.13840000     -74.77080000
C      -42.56430000     -33.90250000     -68.78230000
H      -43.15400000     -34.84150000     -68.78450000
H      -41.79440000     -33.92560000     -67.99780000
S      -43.61500000     -32.58840000     -74.31290000
S      -43.63040000     -32.51730000     -68.16850000
C      -45.02400000     -32.55270000     -73.19380000
H      -44.80790000     -32.22760000     -72.17000000
H      -45.72260000     -31.87550000     -73.56280000
C      -45.02540000     -32.42590000     -69.30660000
H      -44.72960000     -31.93740000     -70.23010000
H      -45.75570000     -31.81400000     -68.80360000
C      -45.71320000     -33.79050000     -69.62270000
H      -45.19730000     -34.32790000     -70.37130000
H      -45.74750000     -34.49020000     -68.75000000
C      -45.80010000     -33.89180000     -73.13060000
H      -45.26130000     -34.59380000     -72.47940000
H      -45.81790000     -34.17140000     -74.15250000
C      -47.24780000     -33.76060000     -72.64870000
C      -48.28950000     -33.83820000     -73.56440000
C      -47.74170000     -33.88600000     -71.31260000
H      -48.19180000     -33.80620000     -74.64260000
C      -49.13370000     -33.87830000     -71.23080000
C      -47.19950000     -33.71540000     -69.92950000
C      -48.19510000     -33.47050000     -69.02980000
S      -49.88110000     -33.95060000     -72.78670000
S      -49.82350000     -33.59540000     -69.67460000
H      -47.97820000     -33.12430000     -68.03600000
