40
Properties=species:S:1:pos:R:3 #=T CELL(abcABC):=T 1.889726e+02=T 90.00000=T Traj:=T positionsangstrom=T Step:=T 0=T Bead:=T pbc="F F F"
C      -40.73090000     -32.84890000     -70.25250000
C      -41.95960000     -33.57710000     -70.24680000
C      -42.52630000     -34.02310000     -71.46480000
C      -41.95440000     -33.64070000     -72.69500000
C      -40.67690000     -33.04440000     -72.67780000
C      -40.06330000     -32.72470000     -71.49290000
H      -40.14240000     -32.50520000     -69.35160000
H      -43.28660000     -34.76430000     -71.52760000
H      -40.34630000     -32.72520000     -73.67930000
H      -39.14550000     -32.14010000     -71.56210000
C      -42.67570000     -33.89580000     -74.01020000
H      -43.26060000     -34.81170000     -73.91490000
H      -41.96730000     -33.97510000     -74.83630000
C      -42.59910000     -33.92690000     -68.94510000
H      -43.28770000     -34.72750000     -69.07540000
H      -41.91350000     -34.19940000     -68.10910000
S      -43.76460000     -32.45450000     -74.47320000
S      -43.49830000     -32.40700000     -68.29160000
C      -45.17540000     -32.55880000     -73.29880000
H      -44.74240000     -32.21480000     -72.34010000
H      -45.91470000     -31.81030000     -73.64850000
C      -45.04370000     -32.31250000     -69.34710000
H      -44.78860000     -31.98340000     -70.37310000
H      -45.78060000     -31.62100000     -68.82480000
C      -45.63100000     -33.71480000     -69.43100000
H      -44.99900000     -34.30170000     -70.15980000
H      -45.47960000     -34.15240000     -68.47500000
C      -45.84260000     -33.93440000     -73.08750000
H      -45.26170000     -34.54080000     -72.39140000
H      -45.96310000     -34.57020000     -74.00330000
C      -47.26350000     -33.87580000     -72.57870000
C      -48.31410000     -34.17830000     -73.43440000
C      -47.69380000     -33.69100000     -71.24250000
H      -48.27600000     -34.28270000     -74.46190000
C      -49.07470000     -33.73570000     -71.08160000
C      -47.07920000     -33.68900000     -69.86580000
C      -48.05580000     -33.74990000     -68.86710000
S      -49.88690000     -33.95600000     -72.65790000
S      -49.73590000     -33.79310000     -69.49680000
H      -47.92550000     -33.85490000     -67.84000000
