40
Properties=species:S:1:pos:R:3 #=T CELL(abcABC):=T 1.889726e+02=T 90.00000=T Traj:=T positionsangstrom=T Step:=T 0=T Bead:=T pbc="F F F"
C      -40.55340000     -32.97720000     -70.43510000
C      -41.83630000     -33.55140000     -70.27980000
C      -42.53800000     -33.87480000     -71.48910000
C      -41.99820000     -33.47960000     -72.73610000
C      -40.74700000     -32.86410000     -72.86600000
C      -40.01000000     -32.68760000     -71.66430000
H      -40.04960000     -32.73310000     -69.44280000
H      -43.53360000     -34.26460000     -71.56070000
H      -40.28870000     -32.71510000     -73.84030000
H      -38.97540000     -32.35780000     -71.75290000
C      -42.74680000     -33.83890000     -74.00880000
H      -43.24820000     -34.79900000     -73.83840000
H      -42.02600000     -33.97910000     -74.85700000
C      -42.44080000     -33.74370000     -68.96780000
H      -43.11610000     -34.64360000     -69.03060000
H      -41.70370000     -34.03390000     -68.21560000
S      -44.03620000     -32.60140000     -74.62090000
S      -43.39490000     -32.25840000     -68.36530000
C      -45.29920000     -32.55350000     -73.22770000
H      -44.94130000     -32.13700000     -72.32280000
H      -46.01680000     -31.83330000     -73.64780000
C      -44.95820000     -32.30980000     -69.30050000
H      -44.83150000     -31.67320000     -70.15870000
H      -45.54500000     -31.66840000     -68.66450000
C      -45.55040000     -33.70430000     -69.48790000
H      -45.03240000     -34.18920000     -70.35370000
H      -45.36860000     -34.26230000     -68.59890000
C      -45.90790000     -33.94910000     -72.94570000
H      -45.31290000     -34.54980000     -72.29440000
H      -45.77270000     -34.53090000     -73.89670000
C      -47.25210000     -33.86100000     -72.45610000
C      -48.30950000     -33.90590000     -73.37560000
C      -47.74820000     -33.80790000     -71.08990000
H      -48.28170000     -34.01360000     -74.42790000
C      -49.15360000     -33.97960000     -70.99620000
C      -47.07570000     -33.76350000     -69.80150000
C      -48.04090000     -33.72410000     -68.76780000
S      -49.84620000     -34.07050000     -72.63920000
S      -49.70050000     -33.91840000     -69.33940000
H      -47.81430000     -33.72870000     -67.69850000
