40
Properties=species:S:1:pos:R:3 #=T CELL(abcABC):=T 1.889726e+02=T 90.00000=T Traj:=T positionsangstrom=T Step:=T 0=T Bead:=T pbc="F F F"
C      -41.69260000     -35.82790000     -73.05350000
C      -42.36640000     -34.61080000     -72.87300000
C      -43.70130000     -34.43420000     -73.33440000
C      -44.27090000     -35.52930000     -73.99150000
C      -43.68890000     -36.74690000     -74.06180000
C      -42.36890000     -36.88380000     -73.66240000
H      -40.67330000     -35.98820000     -72.76290000
H      -44.19790000     -33.48610000     -73.28870000
H      -44.34990000     -37.54030000     -74.60790000
H      -41.89830000     -37.85930000     -73.71490000
C      -45.70040000     -35.38940000     -74.52650000
H      -45.85410000     -36.08800000     -75.37740000
H      -45.91080000     -34.41770000     -74.83710000
C      -41.62400000     -33.56690000     -72.13880000
H      -40.52330000     -33.62000000     -72.20770000
H      -41.92110000     -32.52910000     -72.36160000
S      -47.01740000     -35.78430000     -73.21690000
S      -42.00160000     -33.83930000     -70.31230000
C      -46.61600000     -34.56170000     -71.92000000
H      -47.43150000     -34.53010000     -71.18380000
H      -45.67750000     -34.71580000     -71.38020000
C      -43.75360000     -33.56530000     -70.13810000
H      -43.99030000     -33.78410000     -69.05540000
H      -44.38620000     -34.16750000     -70.67950000
C      -44.13860000     -32.08600000     -70.55160000
H      -43.18170000     -31.49230000     -70.35240000
H      -44.23590000     -31.99270000     -71.68400000
C      -46.69300000     -33.08380000     -72.44130000
H      -47.32510000     -32.94720000     -73.33890000
H      -45.71690000     -32.66580000     -72.71110000
C      -47.30210000     -32.26410000     -71.37490000
C      -48.65980000     -31.98980000     -71.31800000
C      -46.68580000     -31.78050000     -70.14330000
H      -49.40050000     -32.05580000     -72.12890000
C      -47.55300000     -31.06030000     -69.28360000
C      -45.26900000     -31.61830000     -69.65930000
C      -45.09640000     -30.97720000     -68.46220000
S      -49.13340000     -31.11020000     -69.81700000
S      -46.66620000     -30.57080000     -67.76020000
H      -44.12140000     -30.83880000     -67.97940000
