40
Properties=species:S:1:pos:R:3 #=T CELL(abcABC):=T 1.889726e+02=T 90.00000=T Traj:=T positionsangstrom=T Step:=T 0=T Bead:=T pbc="F F F"
C      -44.91480000     -35.50460000     -68.94600000
C      -44.93160000     -34.30300000     -68.12900000
C      -43.88930000     -33.36020000     -68.30720000
C      -42.78870000     -33.72660000     -69.15670000
C      -42.65840000     -34.99010000     -69.70980000
C      -43.69890000     -35.90490000     -69.56610000
H      -45.77280000     -36.21610000     -68.94900000
H      -43.85510000     -32.31010000     -67.90950000
H      -41.80310000     -35.28080000     -70.31120000
H      -43.63070000     -36.97570000     -69.80100000
C      -41.83030000     -32.61920000     -69.48180000
H      -40.85020000     -32.95510000     -69.43320000
H      -41.74940000     -31.74890000     -68.78480000
C      -46.24570000     -34.08540000     -67.44130000
H      -46.75530000     -34.99110000     -67.28380000
H      -46.21160000     -33.53320000     -66.43560000
S      -42.19010000     -31.95790000     -71.17120000
S      -47.33000000     -32.86780000     -68.47620000
C      -43.76810000     -31.02430000     -70.86090000
H      -43.83000000     -30.71220000     -69.85040000
H      -43.55620000     -30.10620000     -71.51520000
C      -47.76370000     -33.88170000     -69.94520000
H      -48.67780000     -34.49150000     -69.78000000
H      -47.02160000     -34.57700000     -70.23400000
C      -48.08650000     -32.99630000     -71.12030000
H      -49.18320000     -32.96120000     -71.18600000
H      -47.74590000     -31.90780000     -70.89320000
C      -45.08960000     -31.71720000     -71.24610000
H      -45.86910000     -30.94460000     -71.20560000
H      -45.26500000     -32.53110000     -70.57350000
C      -45.14690000     -32.35600000     -72.66320000
C      -44.25780000     -32.36560000     -73.67600000
C      -46.36310000     -33.17350000     -73.02170000
H      -43.28540000     -31.85480000     -73.73720000
C      -46.25670000     -33.63070000     -74.34970000
C      -47.64670000     -33.43980000     -72.49000000
C      -48.44440000     -34.18360000     -73.30260000
S      -44.71560000     -33.32310000     -75.13460000
S      -47.67740000     -34.55480000     -74.84620000
H      -49.51450000     -34.44690000     -73.26850000
