40
Properties=species:S:1:pos:R:3 #=T CELL(abcABC):=T 1.889726e+02=T 90.00000=T Traj:=T positionsangstrom=T Step:=T 0=T Bead:=T pbc="F F F"
C      -41.28930000     -31.78210000     -71.58890000
C      -41.74510000     -32.97010000     -71.09710000
C      -42.26930000     -33.98200000     -71.90350000
C      -42.49080000     -33.75590000     -73.26850000
C      -42.08400000     -32.50570000     -73.78360000
C      -41.49580000     -31.53460000     -72.91900000
H      -41.01410000     -30.97000000     -70.95420000
H      -42.30300000     -35.05120000     -71.57300000
H      -42.11380000     -32.09230000     -74.77210000
H      -41.25120000     -30.58870000     -73.28240000
C      -43.17630000     -34.81000000     -74.13240000
H      -43.61570000     -35.59030000     -73.55890000
H      -42.57630000     -35.24050000     -74.88020000
C      -41.69410000     -33.21010000     -69.59020000
H      -41.96670000     -34.27750000     -69.35170000
H      -40.68840000     -33.05090000     -69.05320000
S      -44.50540000     -34.00160000     -75.04620000
S      -42.95840000     -32.05160000     -68.67820000
C      -45.52290000     -33.40650000     -73.58850000
H      -44.97390000     -32.76290000     -72.93870000
H      -46.31390000     -32.76790000     -74.01920000
C      -44.56850000     -32.14960000     -69.44280000
H      -44.35740000     -31.78210000     -70.45740000
H      -45.30210000     -31.46570000     -68.98920000
C      -45.12470000     -33.62520000     -69.40010000
H      -44.79450000     -34.21790000     -70.30260000
H      -44.71290000     -34.07330000     -68.52270000
C      -46.01130000     -34.55740000     -72.73660000
H      -45.26600000     -34.91160000     -72.01600000
H      -46.25900000     -35.48020000     -73.31540000
C      -47.27210000     -34.22210000     -71.97940000
C      -48.45940000     -34.00070000     -72.67130000
C      -47.47640000     -33.95460000     -70.53730000
H      -48.58550000     -33.92780000     -73.73650000
C      -48.80690000     -33.66040000     -70.24050000
C      -46.65340000     -33.72790000     -69.37660000
C      -47.39120000     -33.54960000     -68.20470000
S      -49.82920000     -33.65650000     -71.64770000
S      -49.13770000     -33.58840000     -68.49590000
H      -46.90160000     -33.51740000     -67.20390000
