40
Properties=species:S:1:pos:R:3 #=T CELL(abcABC):=T 1.889726e+02=T 90.00000=T Traj:=T positionsangstrom=T Step:=T 0=T Bead:=T pbc="F F F"
C      -41.66400000     -31.72660000     -72.28600000
C      -41.77620000     -32.95580000     -71.57950000
C      -42.40710000     -34.02050000     -72.25300000
C      -42.87970000     -33.91810000     -73.55570000
C      -42.80600000     -32.70590000     -74.21390000
C      -42.30140000     -31.60420000     -73.54260000
H      -41.13810000     -30.89670000     -71.94090000
H      -42.64460000     -35.00690000     -71.76060000
H      -43.09030000     -32.47160000     -75.28120000
H      -42.30350000     -30.67400000     -74.03840000
C      -43.41060000     -35.19550000     -74.24300000
H      -43.30000000     -36.06120000     -73.58880000
H      -42.83200000     -35.39620000     -75.13340000
C      -41.47750000     -33.19470000     -70.12180000
H      -41.74620000     -34.19060000     -69.88730000
H      -40.46970000     -32.93540000     -69.83940000
S      -45.15490000     -35.10810000     -74.96040000
S      -42.43450000     -31.93750000     -69.08110000
C      -45.93640000     -33.88160000     -73.83460000
H      -45.48260000     -32.91330000     -73.88430000
H      -47.03080000     -33.75240000     -74.23720000
C      -44.10600000     -32.37170000     -69.56540000
H      -44.20110000     -32.18310000     -70.62790000
H      -44.73740000     -31.61090000     -69.15970000
C      -44.79600000     -33.77840000     -69.23740000
H      -44.55820000     -34.52800000     -70.02040000
H      -44.36030000     -34.13300000     -68.30420000
C      -45.96770000     -34.26130000     -72.36120000
H      -45.28650000     -33.67150000     -71.82240000
H      -45.72620000     -35.35270000     -72.24940000
C      -47.25580000     -33.96240000     -71.63520000
C      -48.45490000     -33.82910000     -72.26960000
C      -47.33950000     -33.69120000     -70.21070000
H      -48.66140000     -34.00180000     -73.39700000
C      -48.61780000     -33.39710000     -69.79380000
C      -46.35410000     -33.57220000     -69.08410000
C      -46.93270000     -33.15340000     -67.95650000
S      -49.77460000     -33.44750000     -71.10030000
S      -48.67530000     -32.83910000     -68.14500000
H      -46.53380000     -33.11020000     -66.96000000
