40
Properties=species:S:1:pos:R:3 #=T CELL(abcABC):=T 1.889726e+02=T 90.00000=T Traj:=T positionsangstrom=T Step:=T 0=T Bead:=T pbc="F F F"
C      -41.85260000     -32.03110000     -72.62760000
C      -41.82000000     -33.20420000     -71.85100000
C      -42.47250000     -34.37380000     -72.31770000
C      -42.93760000     -34.48750000     -73.68460000
C      -42.84030000     -33.33690000     -74.44790000
C      -42.41950000     -32.11990000     -73.86130000
H      -41.59170000     -31.05220000     -72.28680000
H      -42.56920000     -35.30680000     -71.65360000
H      -43.20740000     -33.42970000     -75.44360000
H      -42.46520000     -31.18360000     -74.47830000
C      -43.67750000     -35.73430000     -74.15550000
H      -43.91240000     -36.39370000     -73.33380000
H      -43.19390000     -36.38580000     -74.93230000
C      -41.37700000     -33.03620000     -70.37670000
H      -41.67200000     -33.92790000     -69.77900000
H      -40.30930000     -32.89430000     -70.20460000
S      -45.32020000     -35.34250000     -74.87380000
S      -42.24730000     -31.57840000     -69.61340000
C      -46.18200000     -34.13710000     -73.75630000
H      -45.68300000     -33.17700000     -73.77670000
H      -47.25230000     -33.96080000     -74.13510000
C      -44.08290000     -31.82330000     -70.03040000
H      -44.28800000     -31.82480000     -71.08530000
H      -44.58620000     -30.89050000     -69.73280000
C      -44.66560000     -33.09660000     -69.42420000
H      -44.37990000     -33.98360000     -70.03180000
H      -44.28590000     -33.29380000     -68.44880000
C      -46.13600000     -34.55380000     -72.24580000
H      -45.25610000     -34.28330000     -71.76620000
H      -46.09210000     -35.67360000     -72.14580000
C      -47.30440000     -34.05980000     -71.45170000
C      -48.65610000     -34.23330000     -71.72500000
C      -47.26930000     -33.45560000     -70.06100000
H      -49.08300000     -34.69840000     -72.62710000
C      -48.49630000     -33.19250000     -69.46800000
C      -46.18830000     -32.99810000     -69.19900000
C      -46.63110000     -32.51740000     -68.00230000
S      -49.81430000     -33.53960000     -70.56060000
S      -48.40500000     -32.38740000     -67.85520000
H      -46.04700000     -31.97780000     -67.25530000
