40
Properties=species:S:1:pos:R:3 #=T CELL(abcABC):=T 1.889726e+02=T 90.00000=T Traj:=T positionsangstrom=T Step:=T 0=T Bead:=T pbc="F F F"
C      -41.40820000     -32.45000000     -73.23110000
C      -41.96250000     -33.14190000     -72.11320000
C      -42.73380000     -34.29340000     -72.48250000
C      -43.11380000     -34.57410000     -73.82790000
C      -42.56800000     -33.90390000     -74.88200000
C      -41.74680000     -32.83030000     -74.54310000
H      -40.75820000     -31.62680000     -72.96480000
H      -43.16720000     -34.98720000     -71.70940000
H      -42.71760000     -34.10190000     -75.96170000
H      -41.36720000     -32.25740000     -75.34750000
C      -44.07880000     -35.70230000     -74.11500000
H      -44.14230000     -36.14770000     -73.11530000
H      -43.79560000     -36.46400000     -74.88120000
C      -41.51190000     -32.89790000     -70.71510000
H      -41.77470000     -33.80390000     -70.06540000
H      -40.37660000     -32.74110000     -70.67500000
S      -45.74230000     -35.32310000     -74.77190000
S      -42.23420000     -31.46080000     -69.76580000
C      -46.59590000     -34.26320000     -73.48030000
H      -46.26030000     -33.21260000     -73.57190000
H      -47.72680000     -34.32020000     -73.70540000
C      -44.05030000     -31.56350000     -69.95520000
H      -44.45920000     -31.49500000     -70.97380000
H      -44.48560000     -30.73320000     -69.44170000
C      -44.49850000     -32.94030000     -69.45750000
H      -44.17480000     -33.73440000     -70.15100000
H      -44.01390000     -33.08170000     -68.54230000
C      -46.37840000     -34.71620000     -72.06170000
H      -45.34550000     -34.54860000     -71.64120000
H      -46.47520000     -35.76330000     -71.98730000
C      -47.36320000     -34.12110000     -71.09000000
C      -48.72420000     -34.16240000     -71.40360000
C      -47.13500000     -33.43180000     -69.88430000
H      -49.22080000     -34.68710000     -72.21930000
C      -48.36730000     -33.02590000     -69.24650000
C      -46.00640000     -32.94220000     -69.13200000
C      -46.40890000     -32.27430000     -68.02510000
S      -49.81030000     -33.60600000     -70.15920000
S      -48.13210000     -32.10140000     -67.80960000
H      -45.66250000     -31.92260000     -67.33860000
