40
Properties=species:S:1:pos:R:3 #=T CELL(abcABC):=T 1.889726e+02=T 90.00000=T Traj:=T positionsangstrom=T Step:=T 0=T Bead:=T pbc="F F F"
C      -44.96760000     -35.74750000     -68.70320000
C      -45.22890000     -34.50860000     -68.08410000
C      -44.27780000     -33.43420000     -68.42010000
C      -43.14800000     -33.64770000     -69.19790000
C      -42.85090000     -34.98450000     -69.65680000
C      -43.80820000     -35.96440000     -69.48440000
H      -45.54260000     -36.60800000     -68.49200000
H      -44.56250000     -32.50820000     -67.95220000
H      -41.90880000     -35.18270000     -70.16910000
H      -43.71820000     -36.97140000     -69.90510000
C      -42.03950000     -32.65320000     -69.45290000
H      -41.11000000     -33.31010000     -69.43760000
H      -42.01690000     -31.80570000     -68.72480000
C      -46.57100000     -34.24470000     -67.36580000
H      -47.11580000     -35.26060000     -67.23860000
H      -46.42270000     -33.82770000     -66.40100000
S      -41.97720000     -31.96510000     -71.17410000
S      -47.65270000     -33.15680000     -68.39500000
C      -43.46400000     -30.88710000     -71.16840000
H      -43.50100000     -30.36620000     -70.22740000
H      -43.40460000     -30.17500000     -71.89170000
C      -47.26020000     -33.83180000     -70.05390000
H      -47.55180000     -34.86290000     -70.06840000
H      -46.16390000     -33.83190000     -70.28280000
C      -48.03610000     -33.04490000     -71.16900000
H      -49.11230000     -33.29950000     -71.12140000
H      -47.97590000     -31.98310000     -70.95990000
C      -44.85900000     -31.62340000     -71.23440000
H      -45.57620000     -30.80940000     -71.06570000
H      -45.06390000     -32.36380000     -70.51910000
C      -45.10120000     -32.28030000     -72.58640000
C      -44.20160000     -32.28720000     -73.57650000
C      -46.28630000     -33.04650000     -73.02540000
H      -43.20720000     -31.97350000     -73.47280000
C      -46.20890000     -33.52640000     -74.34900000
C      -47.52470000     -33.44260000     -72.48010000
C      -48.30330000     -34.22450000     -73.32720000
S      -44.65850000     -33.13940000     -75.15740000
S      -47.53500000     -34.35820000     -74.93720000
H      -49.23260000     -34.69090000     -73.02950000
