40
Properties=species:S:1:pos:R:3 #=T CELL(abcABC):=T 1.889726e+02=T 90.00000=T Traj:=T positionsangstrom=T Step:=T 0=T Bead:=T pbc="F F F"
C      -41.33930000     -32.78150000     -73.77330000
C      -41.98290000     -33.41230000     -72.67130000
C      -42.97740000     -34.35770000     -72.97410000
C      -43.41100000     -34.68030000     -74.25130000
C      -42.69290000     -34.06740000     -75.29210000
C      -41.72640000     -33.07080000     -75.03350000
H      -40.62250000     -31.94930000     -73.57860000
H      -43.49760000     -34.91500000     -72.21290000
H      -42.78530000     -34.35770000     -76.35760000
H      -41.27860000     -32.58680000     -75.86850000
C      -44.51050000     -35.63610000     -74.47510000
H      -44.53560000     -36.36510000     -73.67840000
H      -44.37610000     -36.16100000     -75.42240000
C      -41.45720000     -33.07660000     -71.26690000
H      -41.74550000     -33.83460000     -70.50490000
H      -40.36250000     -32.99300000     -71.30290000
S      -46.13900000     -34.76390000     -74.50090000
S      -42.42220000     -31.48690000     -70.64660000
C      -46.32490000     -33.93220000     -72.90290000
H      -45.57110000     -33.17800000     -72.91030000
H      -47.30460000     -33.39190000     -73.04080000
C      -44.18540000     -32.08200000     -70.49440000
H      -44.58690000     -32.49130000     -71.40020000
H      -44.82890000     -31.23050000     -70.41000000
C      -44.43310000     -33.11570000     -69.36100000
H      -44.07720000     -34.06360000     -69.76470000
H      -43.76070000     -32.98620000     -68.46350000
C      -46.40210000     -34.79280000     -71.63280000
H      -45.40030000     -35.01010000     -71.16370000
H      -46.76040000     -35.82700000     -71.94150000
C      -47.42290000     -34.18430000     -70.65620000
C      -48.76730000     -34.21910000     -70.78830000
C      -46.95260000     -33.48340000     -69.46950000
H      -49.33990000     -34.66690000     -71.62920000
C      -48.07170000     -33.05850000     -68.79430000
C      -45.75110000     -33.02410000     -68.77700000
C      -46.02230000     -32.30800000     -67.62120000
S      -49.61750000     -33.30520000     -69.62910000
S      -47.81500000     -32.10360000     -67.43690000
H      -45.34660000     -31.67750000     -66.94330000
