40
Properties=species:S:1:pos:R:3 #=T CELL(abcABC):=T 1.889726e+02=T 90.00000=T Traj:=T positionsangstrom=T Step:=T 0=T Bead:=T pbc="F F F"
C      -44.46750000     -36.96500000     -71.11400000
C      -43.52920000     -36.23340000     -71.91900000
C      -44.01730000     -35.63330000     -73.08580000
C      -45.37220000     -35.68410000     -73.46530000
C      -46.24760000     -36.47360000     -72.67360000
C      -45.79870000     -37.06640000     -71.44880000
H      -44.23200000     -37.48580000     -70.23620000
H      -43.39670000     -35.09240000     -73.79950000
H      -47.31730000     -36.51270000     -72.87780000
H      -46.44630000     -37.67980000     -70.83510000
C      -45.85530000     -34.94740000     -74.80110000
H      -46.87560000     -34.99580000     -74.95570000
H      -45.39960000     -35.39280000     -75.65800000
C      -42.06620000     -36.17590000     -71.52560000
H      -41.94120000     -36.99650000     -70.77870000
H      -41.40840000     -36.33850000     -72.42550000
S      -45.46380000     -33.16040000     -74.91250000
S      -41.61820000     -34.51160000     -70.88460000
C      -46.46240000     -32.64290000     -73.42390000
H      -47.50190000     -32.50830000     -73.68370000
H      -46.52400000     -33.45230000     -72.76390000
C      -43.06460000     -34.05030000     -69.77820000
H      -42.62690000     -33.59720000     -68.90390000
H      -43.63080000     -34.93920000     -69.53480000
C      -44.01930000     -33.11400000     -70.48010000
H      -43.46790000     -32.12990000     -70.73100000
H      -44.30630000     -33.41470000     -71.47190000
C      -45.74640000     -31.39940000     -72.86640000
H      -45.85000000     -30.60240000     -73.62350000
H      -44.65510000     -31.59320000     -72.76790000
C      -46.34950000     -30.94330000     -71.52880000
C      -47.38960000     -30.05000000     -71.44020000
C      -46.08030000     -31.58380000     -70.24400000
H      -47.73690000     -29.37200000     -72.14060000
C      -46.99240000     -31.17530000     -69.27000000
C      -45.15760000     -32.62140000     -69.72560000
C      -45.43590000     -32.95730000     -68.41480000
S      -48.11580000     -30.00650000     -69.80730000
S      -46.81460000     -32.06420000     -67.79290000
H      -44.87740000     -33.72790000     -67.85280000
