40
Properties=species:S:1:pos:R:3 #=T CELL(abcABC):=T 1.889726e+02=T 90.00000=T Traj:=T positionsangstrom=T Step:=T 0=T Bead:=T pbc="F F F"
C      -44.51650000     -36.93440000     -71.20100000
C      -43.52060000     -36.36290000     -72.02180000
C      -43.86990000     -35.79300000     -73.23580000
C      -45.17900000     -35.81510000     -73.66700000
C      -46.18360000     -36.35600000     -72.87210000
C      -45.86220000     -36.95900000     -71.66480000
H      -44.43160000     -37.37260000     -70.18350000
H      -43.09900000     -35.32450000     -73.82810000
H      -47.18760000     -36.23350000     -73.20780000
H      -46.64200000     -37.37780000     -71.08360000
C      -45.62310000     -35.15840000     -74.96700000
H      -46.71030000     -35.48610000     -75.16370000
H      -44.91750000     -35.52860000     -75.81030000
C      -42.08320000     -36.29070000     -71.46640000
H      -42.09280000     -37.01620000     -70.60640000
H      -41.33680000     -36.60830000     -72.09830000
S      -45.30360000     -33.29320000     -74.83510000
S      -41.66250000     -34.57660000     -70.87410000
C      -46.57160000     -32.51620000     -73.63270000
H      -47.41900000     -32.03520000     -74.19650000
H      -46.92260000     -33.30810000     -72.94840000
C      -43.07520000     -34.08080000     -69.78620000
H      -42.79790000     -33.46050000     -68.84490000
H      -43.71480000     -34.91980000     -69.42350000
C      -44.16110000     -33.19350000     -70.47310000
H      -43.73050000     -32.32480000     -70.99270000
H      -44.62840000     -33.70500000     -71.30960000
C      -45.77140000     -31.42580000     -72.79980000
H      -45.57080000     -30.57640000     -73.40000000
H      -44.80290000     -31.84920000     -72.48150000
C      -46.48080000     -31.02180000     -71.46050000
C      -47.52690000     -30.15370000     -71.41160000
C      -46.23500000     -31.65630000     -70.19780000
H      -47.96650000     -29.55670000     -72.18390000
C      -47.08600000     -31.19270000     -69.19040000
C      -45.26020000     -32.59160000     -69.63030000
C      -45.47030000     -32.75900000     -68.26580000
S      -48.08980000     -29.84660000     -69.79260000
S      -46.77760000     -31.81570000     -67.61000000
H      -44.85210000     -33.36730000     -67.55100000
