40
Properties=species:S:1:pos:R:3 #=T CELL(abcABC):=T 1.889726e+02=T 90.00000=T Traj:=T positionsangstrom=T Step:=T 0=T Bead:=T pbc="F F F"
C      -44.92230000     -35.83510000     -68.63060000
C      -45.24100000     -34.59380000     -68.04880000
C      -44.36510000     -33.56140000     -68.38400000
C      -43.17790000     -33.80370000     -69.13430000
C      -42.91360000     -35.04280000     -69.71920000
C      -43.84360000     -36.06570000     -69.43910000
H      -45.67420000     -36.55740000     -68.54440000
H      -44.56960000     -32.52590000     -68.00150000
H      -42.11500000     -35.16760000     -70.41710000
H      -43.69150000     -37.09040000     -69.79780000
C      -42.31150000     -32.57230000     -69.36280000
H      -41.38420000     -32.46420000     -68.93400000
H      -42.80770000     -31.78490000     -68.78830000
C      -46.46880000     -34.29990000     -67.26790000
H      -46.97320000     -35.16410000     -66.82690000
H      -46.12240000     -33.66230000     -66.49550000
S      -42.06170000     -32.03430000     -71.12260000
S      -47.75220000     -33.29300000     -68.29240000
C      -43.44300000     -30.78550000     -71.27810000
H      -43.40550000     -30.13360000     -70.32570000
H      -43.37630000     -30.15200000     -72.19640000
C      -47.44740000     -33.96130000     -69.95480000
H      -48.02820000     -34.91570000     -70.00470000
H      -46.43350000     -34.24190000     -70.17210000
C      -47.94560000     -32.94650000     -71.07140000
H      -49.07820000     -32.93600000     -71.08060000
H      -47.62390000     -31.93200000     -70.81590000
C      -44.79920000     -31.47110000     -71.40320000
H      -45.54830000     -30.62840000     -71.35200000
H      -44.91320000     -32.21560000     -70.54050000
C      -45.01410000     -32.17770000     -72.78590000
C      -44.05310000     -32.30570000     -73.74570000
C      -46.21790000     -32.87390000     -73.17370000
H      -43.05300000     -32.00700000     -73.74010000
C      -46.10730000     -33.52770000     -74.41790000
C      -47.41820000     -33.29100000     -72.48770000
C      -48.24640000     -33.98530000     -73.37130000
S      -44.56410000     -33.08760000     -75.25150000
S      -47.49580000     -34.36540000     -74.86490000
H      -49.18440000     -34.45440000     -73.06350000
