40
Properties=species:S:1:pos:R:3 #=T CELL(abcABC):=T 1.889726e+02=T 90.00000=T Traj:=T positionsangstrom=T Step:=T 0=T Bead:=T pbc="F F F"
C      -44.87320000     -37.40200000     -71.27220000
C      -43.89870000     -36.41640000     -71.54010000
C      -43.95260000     -35.65150000     -72.77110000
C      -45.04890000     -35.94480000     -73.64390000
C      -46.02730000     -36.95010000     -73.32700000
C      -45.95630000     -37.72260000     -72.13670000
H      -44.75680000     -37.88410000     -70.26600000
H      -43.33230000     -34.77770000     -73.02020000
H      -46.70430000     -37.24510000     -74.10510000
H      -46.65650000     -38.53490000     -71.96230000
C      -45.28880000     -35.20570000     -75.00370000
H      -46.11930000     -35.68590000     -75.65670000
H      -44.40600000     -35.22520000     -75.67930000
C      -42.63400000     -36.33560000     -70.63270000
H      -42.81730000     -36.60870000     -69.53800000
H      -41.86690000     -36.98750000     -71.03910000
S      -45.58580000     -33.39630000     -74.97460000
S      -41.73330000     -34.64110000     -70.53290000
C      -46.05990000     -32.90930000     -73.25020000
H      -47.08810000     -33.25540000     -73.08260000
H      -45.49210000     -33.52170000     -72.51660000
C      -42.88150000     -33.63260000     -69.54770000
H      -42.23460000     -33.04840000     -68.82940000
H      -43.44830000     -34.30140000     -68.92220000
C      -43.71120000     -32.66410000     -70.39480000
H      -43.10730000     -31.72130000     -70.59010000
H      -43.85500000     -33.09990000     -71.39210000
C      -45.79380000     -31.41400000     -72.90940000
H      -46.03060000     -30.76230000     -73.75980000
H      -44.73780000     -31.32750000     -72.77050000
C      -46.51350000     -30.99480000     -71.66020000
C      -47.52460000     -30.05340000     -71.67170000
C      -46.08080000     -31.42840000     -70.36080000
H      -48.08370000     -29.60660000     -72.53800000
C      -47.00470000     -30.97400000     -69.41500000
C      -45.00970000     -32.18530000     -69.71080000
C      -45.18000000     -32.27600000     -68.30270000
S      -48.26390000     -29.98800000     -70.04690000
S      -46.74860000     -31.53520000     -67.77320000
H      -44.59800000     -32.74510000     -67.46550000
