40
Properties=species:S:1:pos:R:3 #=T CELL(abcABC):=T 1.889726e+02=T 90.00000=T Traj:=T positionsangstrom=T Step:=T 0=T Bead:=T pbc="F F F"
C      -44.81740000     -37.25610000     -71.19310000
C      -43.89850000     -36.31760000     -71.61950000
C      -44.06750000     -35.60510000     -72.78920000
C      -45.20490000     -35.88840000     -73.60270000
C      -46.10850000     -36.85740000     -73.25240000
C      -45.88070000     -37.53360000     -72.03120000
H      -44.66630000     -37.78970000     -70.25720000
H      -43.36800000     -34.91740000     -73.10060000
H      -47.08010000     -36.97300000     -73.81040000
H      -46.58250000     -38.28380000     -71.74720000
C      -45.30760000     -35.25760000     -74.90410000
H      -46.08280000     -35.73310000     -75.42240000
H      -44.35490000     -35.35970000     -75.39300000
C      -42.70170000     -36.20370000     -70.72920000
H      -42.99240000     -36.47490000     -69.77340000
H      -41.97060000     -37.00820000     -70.99300000
S      -45.45730000     -33.37000000     -74.88890000
S      -41.84530000     -34.63290000     -70.68410000
C      -46.06920000     -32.93700000     -73.22230000
H      -47.16440000     -32.92760000     -73.22010000
H      -45.59070000     -33.61450000     -72.50950000
C      -42.82850000     -33.52010000     -69.58390000
H      -42.13140000     -32.92230000     -68.96540000
H      -43.43120000     -34.18440000     -69.03650000
C      -43.75860000     -32.65450000     -70.32710000
H      -43.21450000     -31.87610000     -70.79580000
H      -44.16600000     -33.23060000     -71.17150000
C      -45.62860000     -31.49410000     -72.82170000
H      -45.86050000     -30.81770000     -73.64390000
H      -44.51090000     -31.32750000     -72.78370000
C      -46.36900000     -31.02990000     -71.67690000
C      -47.51480000     -30.30060000     -71.75050000
C      -46.03060000     -31.37530000     -70.28850000
H      -47.97150000     -30.07550000     -72.69340000
C      -47.07240000     -31.02240000     -69.42770000
C      -44.89130000     -32.06700000     -69.61760000
C      -45.15070000     -32.23760000     -68.26880000
S      -48.32410000     -30.19280000     -70.17610000
S      -46.74520000     -31.58830000     -67.75160000
H      -44.57140000     -32.89370000     -67.60900000
