40
Properties=species:S:1:pos:R:3 #=T CELL(abcABC):=T 1.889726e+02=T 90.00000=T Traj:=T positionsangstrom=T Step:=T 0=T Bead:=T pbc="F F F"
C      -42.00520000     -32.33860000     -74.02220000
C      -42.40550000     -33.35240000     -73.15010000
C      -43.53170000     -34.19120000     -73.36280000
C      -44.23250000     -33.98460000     -74.58730000
C      -43.78700000     -32.96850000     -75.46760000
C      -42.70790000     -32.09960000     -75.20050000
H      -41.03460000     -31.83190000     -73.80130000
H      -43.65780000     -35.00720000     -72.73480000
H      -44.16510000     -32.95230000     -76.47730000
H      -42.31390000     -31.41660000     -75.85790000
C      -45.35670000     -34.87540000     -75.08620000
H      -45.31990000     -35.86490000     -74.54530000
H      -45.14070000     -34.96210000     -76.09800000
C      -41.66190000     -33.51460000     -71.83890000
H      -41.95710000     -34.37360000     -71.23660000
H      -40.51710000     -33.66450000     -72.08820000
S      -46.96150000     -34.13230000     -74.62680000
S      -41.74950000     -31.91260000     -70.74310000
C      -46.75180000     -33.53700000     -72.86190000
H      -45.94080000     -32.73680000     -72.86830000
H      -47.71990000     -33.00390000     -72.70550000
C      -42.94240000     -32.46120000     -69.38090000
H      -43.17070000     -31.56840000     -68.80980000
H      -42.33060000     -33.17700000     -68.75650000
C      -44.21090000     -33.22450000     -69.86250000
H      -44.53770000     -32.99420000     -70.86600000
H      -43.83960000     -34.21290000     -69.94560000
C      -46.44570000     -34.63090000     -71.87490000
H      -45.43980000     -34.82140000     -71.53630000
H      -46.70840000     -35.65580000     -72.33280000
C      -47.24530000     -34.46370000     -70.54570000
C      -48.53090000     -34.75010000     -70.35580000
C      -46.69030000     -33.69990000     -69.38180000
H      -49.16070000     -35.23050000     -71.13940000
C      -47.60870000     -33.50900000     -68.42990000
C      -45.45740000     -33.05700000     -69.04000000
C      -45.47520000     -32.35400000     -67.86020000
S      -49.21470000     -34.08060000     -68.86370000
S      -47.04400000     -32.45490000     -67.12430000
H      -44.62800000     -31.97060000     -67.29720000
