40
Properties=species:S:1:pos:R:3 #=T CELL(abcABC):=T 1.889726e+02=T 90.00000=T Traj:=T positionsangstrom=T Step:=T 0=T Bead:=T pbc="F F F"
C      -44.94180000     -35.85960000     -68.56810000
C      -45.30630000     -34.59490000     -68.07110000
C      -44.45500000     -33.53970000     -68.24960000
C      -43.21820000     -33.75260000     -68.92910000
C      -42.97330000     -34.98890000     -69.55030000
C      -43.82170000     -36.05240000     -69.38100000
H      -45.58490000     -36.71510000     -68.29050000
H      -44.67310000     -32.54630000     -67.93010000
H      -42.07110000     -35.08770000     -70.12020000
H      -43.56540000     -36.94680000     -69.90800000
C      -42.21320000     -32.61040000     -69.21950000
H      -41.17810000     -33.00370000     -69.10950000
H      -42.55060000     -31.77960000     -68.54200000
C      -46.61100000     -34.51820000     -67.40020000
H      -47.09460000     -35.45610000     -67.25470000
H      -46.55390000     -33.98390000     -66.36260000
S      -42.15850000     -32.03540000     -71.01610000
S      -47.82740000     -33.49780000     -68.35930000
C      -43.43510000     -30.69770000     -71.28420000
H      -43.34800000     -30.15630000     -70.39460000
H      -43.05190000     -30.08990000     -72.12440000
C      -47.56860000     -34.00700000     -70.16450000
H      -48.36170000     -34.76300000     -70.35500000
H      -46.60440000     -34.48280000     -70.23860000
C      -47.75160000     -32.76290000     -71.12660000
H      -48.72180000     -32.37350000     -71.23540000
H      -47.05160000     -32.03500000     -70.71330000
C      -44.76750000     -31.27560000     -71.56870000
H      -45.47960000     -30.51650000     -71.56150000
H      -45.06110000     -31.95270000     -70.75890000
C      -44.88430000     -32.07720000     -72.92110000
C      -44.03240000     -32.11560000     -73.98960000
C      -46.05520000     -32.90650000     -73.16630000
H      -43.12860000     -31.57360000     -73.96510000
C      -46.00160000     -33.55920000     -74.40180000
C      -47.28740000     -33.22470000     -72.45340000
C      -48.19590000     -33.90830000     -73.25850000
S      -44.54180000     -33.15010000     -75.33330000
S      -47.52400000     -34.35420000     -74.79260000
H      -49.20400000     -34.12930000     -72.86740000
