40
Properties=species:S:1:pos:R:3 #=T CELL(abcABC):=T 1.889726e+02=T 90.00000=T Traj:=T positionsangstrom=T Step:=T 0=T Bead:=T pbc="F F F"
C      -42.02690000     -32.08710000     -74.26100000
C      -42.13940000     -33.18000000     -73.35300000
C      -43.16640000     -34.07410000     -73.47300000
C      -44.11820000     -33.83070000     -74.46230000
C      -44.03680000     -32.81940000     -75.37860000
C      -42.99110000     -31.87750000     -75.25230000
H      -41.34020000     -31.25020000     -74.04100000
H      -43.15890000     -34.93770000     -72.76570000
H      -44.88750000     -32.60750000     -76.06640000
H      -42.87340000     -31.11940000     -75.95060000
C      -45.30560000     -34.79050000     -74.59900000
H      -45.30560000     -35.48960000     -73.76130000
H      -45.30260000     -35.28480000     -75.64620000
C      -41.15140000     -33.21320000     -72.17890000
H      -40.94910000     -34.20410000     -71.83580000
H      -40.21690000     -32.70130000     -72.36360000
S      -47.12410000     -34.16260000     -74.65490000
S      -41.80890000     -32.28250000     -70.77110000
C      -47.22330000     -33.66220000     -72.81200000
H      -46.48060000     -32.89560000     -72.76640000
H      -48.23560000     -33.34160000     -72.56060000
C      -43.23690000     -33.26180000     -70.19680000
H      -43.14990000     -33.31030000     -69.11570000
H      -43.23650000     -34.31980000     -70.55160000
C      -44.62940000     -32.60160000     -70.63820000
H      -44.44390000     -31.55760000     -70.97590000
H      -44.94660000     -33.17520000     -71.42860000
C      -46.98520000     -34.82760000     -71.79140000
H      -45.94410000     -35.20930000     -71.72850000
H      -47.51280000     -35.76870000     -72.12230000
C      -47.44550000     -34.37690000     -70.38040000
C      -48.68980000     -34.81310000     -69.79230000
C      -46.74200000     -33.55900000     -69.45890000
H      -49.38410000     -35.57600000     -70.27840000
C      -47.37300000     -33.57780000     -68.13750000
C      -45.62100000     -32.61880000     -69.49950000
C      -45.36510000     -31.95730000     -68.33820000
S      -48.89260000     -34.52070000     -68.09650000
S      -46.55560000     -32.36650000     -67.10490000
H      -44.63790000     -31.22300000     -68.19400000
