40
Properties=species:S:1:pos:R:3 #=T CELL(abcABC):=T 1.889726e+02=T 90.00000=T Traj:=T positionsangstrom=T Step:=T 0=T Bead:=T pbc="F F F"
C      -42.24340000     -31.95000000     -74.13110000
C      -42.25570000     -33.14140000     -73.39880000
C      -43.42870000     -33.97570000     -73.58000000
C      -44.34130000     -33.71850000     -74.62010000
C      -44.21350000     -32.59790000     -75.43260000
C      -43.20180000     -31.66720000     -75.08800000
H      -41.38520000     -31.23040000     -73.89800000
H      -43.67500000     -34.80560000     -72.86240000
H      -45.00390000     -32.41840000     -76.19990000
H      -42.94290000     -30.83830000     -75.77330000
C      -45.49430000     -34.75390000     -74.84980000
H      -45.37280000     -35.63660000     -74.27460000
H      -45.55020000     -35.00120000     -75.90670000
C      -41.34830000     -33.57630000     -72.36460000
H      -41.39360000     -34.59270000     -72.01780000
H      -40.31190000     -33.31040000     -72.57430000
S      -47.15380000     -33.95360000     -74.50080000
S      -41.54750000     -32.71670000     -70.67750000
C      -47.18380000     -33.54640000     -72.66290000
H      -46.62860000     -32.68300000     -72.31000000
H      -48.24850000     -33.56280000     -72.49710000
C      -43.13990000     -33.47120000     -70.01260000
H      -43.09630000     -33.62550000     -68.95060000
H      -43.17110000     -34.52830000     -70.46220000
C      -44.32820000     -32.58470000     -70.43920000
H      -43.92260000     -31.58660000     -70.56140000
H      -44.70570000     -32.93920000     -71.40250000
C      -46.71480000     -34.70030000     -71.77380000
H      -45.65850000     -34.87510000     -71.76050000
H      -47.12740000     -35.52720000     -72.17820000
C      -47.19950000     -34.53970000     -70.36850000
C      -48.38450000     -35.06680000     -69.95460000
C      -46.55720000     -33.61460000     -69.42860000
H      -49.07650000     -35.47280000     -70.57890000
C      -47.41900000     -33.48680000     -68.24510000
C      -45.48960000     -32.69110000     -69.42060000
C      -45.47730000     -31.88290000     -68.24580000
S      -48.76900000     -34.53970000     -68.26400000
S      -46.83950000     -32.19680000     -67.17790000
H      -44.93220000     -30.90890000     -68.01070000
