40
Properties=species:S:1:pos:R:3 #=T CELL(abcABC):=T 1.889726e+02=T 90.00000=T Traj:=T positionsangstrom=T Step:=T 0=T Bead:=T pbc="F F F"
C      -48.23370000     -31.13810000     -72.42800000
C      -47.99100000     -32.25950000     -73.16630000
C      -48.46560000     -33.47770000     -72.68590000
C      -48.85850000     -33.64910000     -71.32340000
C      -48.95240000     -32.54400000     -70.56510000
C      -48.69650000     -31.27740000     -71.09560000
H      -47.77860000     -30.24410000     -72.86080000
H      -48.30620000     -34.31340000     -73.41490000
H      -49.18750000     -32.72980000     -69.51770000
H      -48.95770000     -30.36620000     -70.53250000
C      -48.96740000     -35.03280000     -70.79660000
H      -49.78450000     -35.60240000     -71.26660000
H      -49.02590000     -34.92130000     -69.70420000
C      -47.39630000     -32.20780000     -74.57810000
H      -48.20360000     -32.42290000     -75.21980000
H      -47.05440000     -31.22000000     -74.88480000
S      -47.45370000     -36.08850000     -71.11020000
S      -46.02650000     -33.45560000     -74.72870000
C      -46.01750000     -35.37340000     -70.11830000
H      -46.26170000     -35.60700000     -69.08450000
H      -45.06640000     -35.90190000     -70.47010000
C      -44.84550000     -32.77310000     -73.44980000
H      -45.62510000     -32.36080000     -72.72890000
H      -44.20560000     -31.93260000     -73.79820000
C      -43.85120000     -33.75110000     -72.88270000
H      -44.36350000     -34.60240000     -72.37770000
H      -43.28440000     -34.14380000     -73.78320000
C      -45.80160000     -33.81720000     -70.22070000
H      -46.55020000     -33.28500000     -69.65570000
H      -45.70010000     -33.40200000     -71.21710000
C      -44.46690000     -33.42960000     -69.60020000
C      -44.16980000     -33.35920000     -68.30380000
C      -43.22170000     -33.23110000     -70.42390000
H      -44.82950000     -33.40770000     -67.45770000
C      -42.08700000     -33.02310000     -69.64690000
C      -42.85190000     -33.24830000     -71.85180000
C      -41.50880000     -33.03110000     -72.05880000
S      -42.42780000     -32.95180000     -67.91470000
S      -40.63370000     -32.66370000     -70.52030000
H      -41.10740000     -33.05620000     -73.11610000
