40
Properties=species:S:1:pos:R:3 #=T CELL(abcABC):=T 1.889726e+02=T 90.00000=T Traj:=T positionsangstrom=T Step:=T 0=T Bead:=T pbc="F F F"
C      -48.36150000     -31.12870000     -72.41690000
C      -48.10890000     -32.26130000     -73.20570000
C      -48.37590000     -33.55510000     -72.61490000
C      -48.75420000     -33.70880000     -71.30860000
C      -48.91940000     -32.54070000     -70.54350000
C      -48.63910000     -31.24780000     -71.01840000
H      -48.13090000     -30.19510000     -72.92390000
H      -48.16620000     -34.40450000     -73.35820000
H      -49.16010000     -32.69880000     -69.42470000
H      -48.74180000     -30.36530000     -70.40220000
C      -48.76920000     -35.07560000     -70.69400000
H      -49.63410000     -35.68230000     -71.00270000
H      -48.98060000     -34.98010000     -69.62270000
C      -47.47430000     -32.13780000     -74.60310000
H      -48.19150000     -32.47610000     -75.38240000
H      -47.26840000     -31.07480000     -74.81290000
S      -47.27900000     -36.08450000     -71.13990000
S      -45.92910000     -33.09590000     -74.66860000
C      -46.08640000     -35.52860000     -69.95670000
H      -46.39390000     -35.70020000     -68.95780000
H      -45.17720000     -36.07200000     -70.04700000
C      -44.73680000     -32.53000000     -73.33950000
H      -45.36260000     -32.27770000     -72.51120000
H      -44.21900000     -31.60230000     -73.57280000
C      -43.77220000     -33.61440000     -73.11760000
H      -44.27910000     -34.50820000     -72.92590000
H      -43.19880000     -33.72090000     -74.04510000
C      -45.82680000     -33.97540000     -70.20050000
H      -46.61760000     -33.43000000     -69.79990000
H      -45.91520000     -33.78300000     -71.29710000
C      -44.44510000     -33.59420000     -69.66380000
C      -44.16840000     -33.54980000     -68.34730000
C      -43.30280000     -33.33430000     -70.46630000
H      -44.95100000     -33.52390000     -67.55620000
C      -42.21110000     -33.05370000     -69.68880000
C      -42.91390000     -33.34530000     -71.88870000
C      -41.55380000     -33.04290000     -72.07010000
S      -42.56890000     -33.04080000     -67.94410000
S      -40.74580000     -32.71710000     -70.55370000
H      -41.06620000     -32.90980000     -73.03540000
