40
Properties=species:S:1:pos:R:3 #=T CELL(abcABC):=T 1.889726e+02=T 90.00000=T Traj:=T positionsangstrom=T Step:=T 0=T Bead:=T pbc="F F F"
C      -48.31460000     -31.15480000     -72.28170000
C      -48.04120000     -32.25660000     -73.13200000
C      -48.12870000     -33.52180000     -72.58210000
C      -48.67350000     -33.74030000     -71.32050000
C      -49.05710000     -32.66340000     -70.48410000
C      -48.80590000     -31.33670000     -70.99250000
H      -48.19320000     -30.16030000     -72.73790000
H      -47.77230000     -34.38090000     -73.08570000
H      -49.58320000     -32.68130000     -69.57180000
H      -48.87200000     -30.43280000     -70.36130000
C      -48.90540000     -35.19430000     -70.79900000
H      -49.77410000     -35.61700000     -71.29990000
H      -49.15820000     -35.04300000     -69.70470000
C      -47.48750000     -31.96930000     -74.49610000
H      -48.08030000     -32.38410000     -75.29310000
H      -47.48920000     -30.88860000     -74.64660000
S      -47.49240000     -36.34230000     -71.11230000
S      -45.75250000     -32.67390000     -74.91940000
C      -46.10640000     -35.64360000     -69.97760000
H      -46.31300000     -35.85990000     -68.87560000
H      -45.33580000     -36.30410000     -70.34520000
C      -44.82290000     -32.27930000     -73.34090000
H      -45.52560000     -32.12600000     -72.46620000
H      -44.15920000     -31.38330000     -73.50290000
C      -43.89870000     -33.49440000     -72.98160000
H      -44.52280000     -34.46000000     -72.80400000
H      -43.40520000     -33.72000000     -73.93360000
C      -45.80340000     -34.14400000     -70.29660000
H      -46.56330000     -33.50310000     -69.79530000
H      -45.87510000     -33.90710000     -71.37690000
C      -44.42000000     -33.69940000     -69.65300000
C      -44.23010000     -33.60810000     -68.32400000
C      -43.22020000     -33.33050000     -70.39290000
H      -45.05720000     -33.89730000     -67.66190000
C      -42.11190000     -33.02750000     -69.59470000
C      -42.94120000     -33.34680000     -71.84710000
C      -41.55670000     -33.05010000     -72.06510000
S      -42.54680000     -33.06320000     -67.88570000
S      -40.64920000     -32.76350000     -70.61320000
H      -41.13010000     -32.86960000     -73.02300000
