40
Properties=species:S:1:pos:R:3 #=T CELL(abcABC):=T 1.889726e+02=T 90.00000=T Traj:=T positionsangstrom=T Step:=T 0=T Bead:=T pbc="F F F"
C      -48.38650000     -31.11830000     -71.54120000
C      -48.10520000     -31.91610000     -72.64690000
C      -48.48500000     -33.24420000     -72.63710000
C      -48.76950000     -33.85620000     -71.40490000
C      -48.93740000     -33.10260000     -70.22630000
C      -48.77710000     -31.68100000     -70.30010000
H      -48.22330000     -30.02130000     -71.58150000
H      -48.49550000     -33.82130000     -73.57090000
H      -49.21780000     -33.56590000     -69.31080000
H      -48.94460000     -31.01690000     -69.40520000
C      -48.87790000     -35.40960000     -71.36450000
H      -49.59840000     -35.81050000     -72.09600000
H      -49.07230000     -35.69840000     -70.31490000
C      -47.53780000     -31.28600000     -73.90030000
H      -48.29780000     -31.34230000     -74.64730000
H      -47.34110000     -30.20070000     -73.85180000
S      -47.31540000     -36.17510000     -71.91710000
S      -45.98860000     -32.15310000     -74.47270000
C      -46.11090000     -35.68200000     -70.60040000
H      -46.49680000     -36.18270000     -69.58630000
H      -45.16230000     -36.13530000     -70.90860000
C      -44.83270000     -31.88060000     -73.11870000
H      -45.43210000     -31.90170000     -72.18140000
H      -44.30610000     -30.98010000     -73.34970000
C      -43.82960000     -33.13040000     -73.03870000
H      -44.33340000     -34.11890000     -72.94880000
H      -43.25450000     -33.24090000     -73.96330000
C      -45.77540000     -34.16300000     -70.46400000
H      -46.39930000     -33.57290000     -69.72310000
H      -45.86540000     -33.68230000     -71.42290000
C      -44.44940000     -33.88720000     -69.83360000
C      -44.11730000     -34.18370000     -68.52020000
C      -43.22690000     -33.48890000     -70.52300000
H      -44.82040000     -34.58650000     -67.82180000
C      -42.12520000     -33.35750000     -69.68790000
C      -42.82540000     -33.00730000     -71.84890000
C      -41.56050000     -32.54180000     -71.95040000
S      -42.39300000     -34.05040000     -68.11860000
S      -40.68410000     -32.70980000     -70.41290000
H      -41.01300000     -32.17950000     -72.74320000
