40
Properties=species:S:1:pos:R:3 #=T CELL(abcABC):=T 1.889726e+02=T 90.00000=T Traj:=T positionsangstrom=T Step:=T 0=T Bead:=T pbc="F F F"
C      -42.51290000     -31.52990000     -73.10120000
C      -42.29200000     -32.87220000     -72.95280000
C      -43.07520000     -33.82330000     -73.62870000
C      -44.11380000     -33.41130000     -74.50440000
C      -44.31530000     -32.01050000     -74.61870000
C      -43.52860000     -31.10160000     -73.91550000
H      -41.87300000     -30.83080000     -72.51090000
H      -42.81580000     -34.90640000     -73.49630000
H      -45.09560000     -31.62220000     -75.26790000
H      -43.58110000     -29.97900000     -73.95440000
C      -45.11010000     -34.31480000     -75.17800000
H      -45.01500000     -35.29870000     -74.83030000
H      -45.15520000     -34.21740000     -76.21020000
C      -41.21740000     -33.48100000     -72.09590000
H      -41.18130000     -34.52700000     -72.34140000
H      -40.30430000     -33.04620000     -72.44240000
S      -46.93180000     -33.96510000     -74.75200000
S      -41.40820000     -33.28310000     -70.29060000
C      -46.98250000     -33.40620000     -72.94570000
H      -46.15570000     -32.76130000     -72.68820000
H      -47.92310000     -32.86840000     -72.77600000
C      -43.01650000     -34.14930000     -70.04160000
H      -43.18920000     -34.28470000     -68.91320000
H      -42.94180000     -35.10060000     -70.60150000
C      -44.26820000     -33.25100000     -70.50750000
H      -43.91730000     -32.19930000     -70.72920000
H      -44.54750000     -33.70450000     -71.48490000
C      -47.11220000     -34.71480000     -72.07410000
H      -46.29940000     -35.35380000     -71.97620000
H      -47.95990000     -35.28730000     -72.50580000
C      -47.56840000     -34.46130000     -70.65900000
C      -48.84350000     -34.71320000     -70.23800000
C      -46.76050000     -33.76590000     -69.67420000
H      -49.55420000     -35.14910000     -70.89620000
C      -47.50080000     -33.48470000     -68.52740000
C      -45.42060000     -33.19430000     -69.59490000
C      -45.29870000     -32.39120000     -68.50570000
S      -49.12930000     -34.04970000     -68.66720000
S      -46.65270000     -32.46510000     -67.38920000
H      -44.51450000     -31.66910000     -68.30130000
