40
Properties=species:S:1:pos:R:3 #=T CELL(abcABC):=T 1.889726e+02=T 90.00000=T Traj:=T positionsangstrom=T Step:=T 0=T Bead:=T pbc="F F F"
C      -42.34340000     -31.39760000     -73.01470000
C      -42.19070000     -32.78980000     -72.86880000
C      -43.01290000     -33.70730000     -73.58010000
C      -44.07190000     -33.20040000     -74.38750000
C      -44.24180000     -31.81780000     -74.36930000
C      -43.37090000     -30.89930000     -73.75600000
H      -41.65240000     -30.68680000     -72.60610000
H      -42.76240000     -34.71270000     -73.34650000
H      -45.10690000     -31.48940000     -75.01830000
H      -43.54510000     -29.83490000     -73.74100000
C      -44.94950000     -34.26610000     -75.08660000
H      -44.74660000     -35.37700000     -74.73660000
H      -44.72310000     -34.35140000     -76.16490000
C      -41.07000000     -33.38660000     -72.11400000
H      -40.78210000     -34.43510000     -72.39410000
H      -40.15090000     -32.73880000     -71.95850000
S      -46.90210000     -33.91780000     -74.93890000
S      -41.51350000     -33.35540000     -70.24430000
C      -47.16620000     -33.62520000     -73.15200000
H      -46.39180000     -32.90640000     -72.78880000
H      -48.10210000     -33.05870000     -73.06300000
C      -43.07600000     -34.32810000     -70.16110000
H      -43.21020000     -34.56520000     -69.11550000
H      -43.00210000     -35.29950000     -70.57650000
C      -44.40360000     -33.58240000     -70.66020000
H      -44.12170000     -32.60800000     -71.08190000
H      -44.96890000     -34.16160000     -71.38210000
C      -47.24140000     -34.82570000     -72.11680000
H      -46.18950000     -35.22080000     -72.09510000
H      -47.94980000     -35.57560000     -72.49620000
C      -47.64580000     -34.27770000     -70.74670000
C      -48.90500000     -34.53820000     -70.25480000
C      -46.88340000     -33.62530000     -69.75580000
H      -49.66160000     -34.95340000     -70.92060000
C      -47.60270000     -33.18660000     -68.64960000
C      -45.48300000     -33.33700000     -69.60660000
C      -45.16970000     -32.81750000     -68.40320000
S      -49.19140000     -33.96820000     -68.62090000
S      -46.57920000     -32.64360000     -67.33720000
H      -44.21890000     -32.52380000     -68.03830000
