40
Properties=species:S:1:pos:R:3 #=T CELL(abcABC):=T 1.889726e+02=T 90.00000=T Traj:=T positionsangstrom=T Step:=T 0=T Bead:=T pbc="F F F"
C      -48.55570000     -30.89170000     -71.27130000
C      -47.95080000     -31.55520000     -72.34100000
C      -48.04200000     -32.97820000     -72.30420000
C      -48.54080000     -33.60470000     -71.19120000
C      -49.06090000     -32.88760000     -70.06360000
C      -49.13630000     -31.48930000     -70.15180000
H      -48.74420000     -29.80310000     -71.36600000
H      -47.62140000     -33.55240000     -73.09390000
H      -49.53610000     -33.36470000     -69.20620000
H      -49.57320000     -30.77190000     -69.41450000
C      -48.72720000     -35.13380000     -71.03240000
H      -49.75130000     -35.54210000     -71.20390000
H      -48.67210000     -35.35330000     -69.93900000
C      -47.40470000     -30.75070000     -73.48810000
H      -48.11110000     -30.69170000     -74.29940000
H      -47.13640000     -29.75000000     -73.05010000
S      -47.69430000     -36.20990000     -72.07790000
S      -45.87530000     -31.50800000     -74.28870000
C      -45.97980000     -36.04320000     -71.19750000
H      -45.96820000     -36.69310000     -70.34220000
H      -45.22530000     -36.39690000     -71.89240000
C      -44.77610000     -31.81040000     -72.82670000
H      -45.49310000     -32.05020000     -72.03600000
H      -44.38050000     -30.88420000     -72.48770000
C      -43.70130000     -32.87790000     -73.13040000
H      -44.22940000     -33.83700000     -73.51650000
H      -42.99900000     -32.72290000     -73.95990000
C      -45.68010000     -34.59550000     -70.82350000
H      -46.35380000     -34.09710000     -70.20630000
H      -45.75280000     -33.97620000     -71.72430000
C      -44.29580000     -34.57470000     -70.23040000
C      -44.08300000     -35.06930000     -68.98080000
C      -43.17250000     -33.76500000     -70.77570000
H      -44.71650000     -35.52390000     -68.23380000
C      -42.13390000     -33.73080000     -69.86750000
C      -42.77930000     -33.08940000     -71.99630000
C      -41.50400000     -32.59160000     -71.86450000
S      -42.52620000     -34.45780000     -68.30270000
S      -40.77090000     -32.75670000     -70.30370000
H      -40.92580000     -32.01660000     -72.64420000
