40
Properties=species:S:1:pos:R:3 #=T CELL(abcABC):=T 1.889726e+02=T 90.00000=T Traj:=T positionsangstrom=T Step:=T 0=T Bead:=T pbc="F F F"
C      -43.93900000     -33.48260000     -69.18670000
C      -45.20580000     -32.91470000     -68.91040000
C      -46.39070000     -33.67350000     -69.21970000
C      -46.25610000     -34.97560000     -69.67210000
C      -44.97720000     -35.51160000     -69.99470000
C      -43.84160000     -34.74980000     -69.73620000
H      -43.05990000     -32.86020000     -69.06550000
H      -47.41420000     -33.33960000     -69.18650000
H      -44.98010000     -36.58480000     -70.34560000
H      -42.85370000     -35.13300000     -69.95660000
C      -47.47160000     -35.90870000     -69.97560000
H      -47.79190000     -36.36080000     -69.04490000
H      -47.17350000     -36.72380000     -70.67990000
C      -45.25220000     -31.55090000     -68.22710000
H      -46.26110000     -31.25090000     -67.94630000
H      -44.70000000     -31.54250000     -67.29700000
S      -48.87320000     -35.07230000     -70.79660000
S      -44.42780000     -30.27300000     -69.23600000
C      -48.37010000     -34.83140000     -72.52530000
H      -47.94290000     -35.79110000     -72.98210000
H      -49.28390000     -34.69560000     -73.16810000
C      -45.56000000     -29.83990000     -70.64040000
H      -45.15590000     -28.97470000     -71.20630000
H      -46.48280000     -29.64680000     -70.20110000
C      -45.88870000     -30.98270000     -71.71930000
H      -46.70750000     -31.55240000     -71.32650000
H      -46.26140000     -30.38610000     -72.59270000
C      -47.45240000     -33.62510000     -72.84910000
H      -47.50150000     -32.91770000     -72.04600000
H      -47.91020000     -33.07850000     -73.68210000
C      -46.00590000     -33.97430000     -73.06830000
C      -45.63510000     -35.08100000     -73.77530000
C      -44.86500000     -33.13650000     -72.82390000
H      -46.27870000     -35.93890000     -73.99390000
C      -43.65350000     -33.78790000     -73.12180000
C      -44.71740000     -31.84830000     -72.17810000
C      -43.37150000     -31.54740000     -72.06030000
S      -43.96280000     -35.27210000     -74.07860000
S      -42.24310000     -32.81340000     -72.68380000
H      -42.92090000     -30.56650000     -71.83980000
