40
Properties=species:S:1:pos:R:3 #=T CELL(abcABC):=T 1.889726e+02=T 90.00000=T Traj:=T positionsangstrom=T Step:=T 0=T Bead:=T pbc="F F F"
C      -42.51920000     -30.84630000     -72.58470000
C      -42.45120000     -32.23180000     -72.32290000
C      -42.96370000     -33.10470000     -73.28230000
C      -43.56200000     -32.67960000     -74.47520000
C      -43.50680000     -31.31880000     -74.78110000
C      -42.93470000     -30.37480000     -73.88690000
H      -42.20200000     -30.10560000     -71.80980000
H      -42.85180000     -34.19960000     -73.07160000
H      -44.07030000     -30.86970000     -75.55800000
H      -43.03430000     -29.33000000     -74.04850000
C      -44.26340000     -33.54430000     -75.49890000
H      -43.84240000     -34.51240000     -75.56350000
H      -44.22030000     -33.04660000     -76.36960000
C      -41.75260000     -32.76410000     -71.09290000
H      -41.12900000     -33.59400000     -71.25970000
H      -41.04640000     -32.04690000     -70.69400000
S      -46.13450000     -33.70290000     -75.05950000
S      -42.86410000     -33.29800000     -69.64010000
C      -46.19360000     -33.56610000     -73.24280000
H      -45.15150000     -33.65800000     -72.92600000
H      -46.62900000     -32.59700000     -73.02000000
C      -43.16600000     -35.12730000     -70.09100000
H      -42.84850000     -35.77960000     -69.27610000
H      -42.54770000     -35.32870000     -71.00230000
C      -44.63380000     -35.45910000     -70.39230000
H      -44.96150000     -35.07200000     -71.41950000
H      -44.78290000     -36.53840000     -70.33130000
C      -47.19250000     -34.53710000     -72.52230000
H      -46.71450000     -35.50620000     -72.22890000
H      -48.06300000     -34.64720000     -73.08690000
C      -47.61140000     -33.92480000     -71.15300000
C      -48.79340000     -33.27840000     -70.91250000
C      -46.89000000     -34.15460000     -69.87200000
H      -49.63980000     -33.28660000     -71.59360000
C      -47.64070000     -33.68170000     -68.76230000
C      -45.63970000     -34.84470000     -69.44940000
C      -45.39890000     -34.57260000     -68.12280000
S      -49.19970000     -32.97720000     -69.29400000
S      -46.72720000     -33.73910000     -67.25590000
H      -44.46020000     -34.93030000     -67.66320000
