40
Properties=species:S:1:pos:R:3 #=T CELL(abcABC):=T 1.889726e+02=T 90.00000=T Traj:=T positionsangstrom=T Step:=T 0=T Bead:=T pbc="F F F"
C      -42.38990000     -30.80670000     -72.23760000
C      -42.18310000     -32.19920000     -72.15930000
C      -42.67480000     -33.06950000     -73.16280000
C      -43.33620000     -32.52690000     -74.24520000
C      -43.64280000     -31.15680000     -74.25670000
C      -43.11480000     -30.33220000     -73.30410000
H      -42.05060000     -30.21910000     -71.40400000
H      -42.52490000     -34.16580000     -73.11730000
H      -44.24080000     -30.79230000     -75.15940000
H      -43.25870000     -29.23780000     -73.25490000
C      -43.97950000     -33.40460000     -75.28660000
H      -43.38890000     -34.37460000     -75.40200000
H      -43.94340000     -32.83990000     -76.20230000
C      -41.65230000     -32.80410000     -70.92230000
H      -41.09070000     -33.68090000     -71.13160000
H      -40.90660000     -32.18630000     -70.34800000
S      -45.74250000     -33.86430000     -75.03220000
S      -43.06420000     -33.14580000     -69.83080000
C      -46.09970000     -33.46830000     -73.20590000
H      -45.19910000     -33.67580000     -72.58260000
H      -46.52000000     -32.42660000     -73.11550000
C      -43.21810000     -34.97390000     -70.08830000
H      -42.87570000     -35.51910000     -69.18870000
H      -42.57710000     -35.30080000     -70.87790000
C      -44.71190000     -35.45880000     -70.39720000
H      -44.95730000     -35.25920000     -71.45380000
H      -44.73720000     -36.53790000     -70.21130000
C      -47.11650000     -34.53750000     -72.66620000
H      -46.54810000     -35.48090000     -72.64050000
H      -47.97150000     -34.77680000     -73.29400000
C      -47.64570000     -34.10760000     -71.28380000
C      -48.85970000     -33.52900000     -71.11820000
C      -46.97520000     -34.19150000     -70.01990000
H      -49.52160000     -33.46320000     -71.95250000
C      -47.73860000     -33.68060000     -68.96750000
C      -45.78590000     -34.78580000     -69.53770000
C      -45.64190000     -34.61050000     -68.17110000
S      -49.25320000     -32.97860000     -69.56340000
S      -47.03180000     -33.87170000     -67.41480000
H      -44.73070000     -34.93010000     -67.62420000
