40
Properties=species:S:1:pos:R:3 #=T CELL(abcABC):=T 1.889726e+02=T 90.00000=T Traj:=T positionsangstrom=T Step:=T 0=T Bead:=T pbc="F F F"
C      -42.50730000     -30.63410000     -72.27030000
C      -42.37870000     -32.01620000     -72.08800000
C      -42.78190000     -32.92850000     -73.11040000
C      -43.36330000     -32.44430000     -74.29420000
C      -43.54880000     -31.03320000     -74.38530000
C      -43.08400000     -30.14030000     -73.42460000
H      -42.22000000     -29.93190000     -71.45050000
H      -42.59060000     -33.96560000     -72.90240000
H      -44.13710000     -30.63990000     -75.29450000
H      -43.12280000     -29.09100000     -73.59380000
C      -43.85180000     -33.46110000     -75.28140000
H      -43.36390000     -34.45320000     -75.28940000
H      -43.80570000     -32.90810000     -76.24110000
C      -41.69040000     -32.71780000     -70.88770000
H      -41.20360000     -33.65350000     -71.24650000
H      -41.06640000     -32.01600000     -70.33000000
S      -45.74540000     -33.85490000     -75.01520000
S      -42.96100000     -33.33970000     -69.58050000
C      -46.06840000     -33.49920000     -73.26270000
H      -45.14050000     -33.39220000     -72.70550000
H      -46.39640000     -32.46370000     -73.18010000
C      -43.21360000     -35.09560000     -69.93280000
H      -43.05260000     -35.71300000     -69.03490000
H      -42.40640000     -35.26690000     -70.73430000
C      -44.64580000     -35.35580000     -70.43910000
H      -44.75150000     -35.06900000     -71.52370000
H      -44.75610000     -36.43460000     -70.51040000
C      -47.06190000     -34.46920000     -72.67270000
H      -46.67360000     -35.51000000     -72.70100000
H      -47.87530000     -34.33940000     -73.30490000
C      -47.59540000     -34.04810000     -71.30120000
C      -48.82120000     -33.43340000     -71.31220000
C      -46.99500000     -34.23230000     -70.02470000
H      -49.41020000     -33.43470000     -72.20920000
C      -47.76880000     -33.73930000     -69.03060000
C      -45.72220000     -34.78890000     -69.58510000
C      -45.66040000     -34.67920000     -68.20680000
S      -49.30000000     -33.11820000     -69.60920000
S      -47.09790000     -33.94480000     -67.42760000
H      -44.75880000     -34.99500000     -67.63600000
