40
Properties=species:S:1:pos:R:3 #=T CELL(abcABC):=T 1.889726e+02=T 90.00000=T Traj:=T positionsangstrom=T Step:=T 0=T Bead:=T pbc="F F F"
C      -42.67090000     -30.73740000     -71.99440000
C      -42.41210000     -32.11180000     -71.91490000
C      -42.67260000     -32.95940000     -73.02160000
C      -43.44160000     -32.48540000     -74.13530000
C      -43.62460000     -31.09160000     -74.28560000
C      -43.21000000     -30.24640000     -73.23860000
H      -42.50080000     -29.97580000     -71.29460000
H      -42.66780000     -34.06940000     -72.85600000
H      -44.03210000     -30.64240000     -75.19020000
H      -43.31360000     -29.17660000     -73.42460000
C      -43.95210000     -33.50880000     -75.15530000
H      -43.38630000     -34.41580000     -74.89040000
H      -43.62750000     -33.28950000     -76.15730000
C      -41.77740000     -32.64800000     -70.69920000
H      -41.05370000     -33.41360000     -70.91920000
H      -41.12100000     -31.85810000     -70.21530000
S      -45.75890000     -33.88600000     -75.16530000
S      -42.87850000     -33.33220000     -69.38720000
C      -46.30220000     -33.26770000     -73.52770000
H      -45.34000000     -33.06040000     -72.99970000
H      -46.87620000     -32.30940000     -73.60440000
C      -43.16570000     -35.08370000     -70.02130000
H      -43.14760000     -35.87810000     -69.17320000
H      -42.39980000     -35.40570000     -70.75010000
C      -44.54520000     -35.09350000     -70.70650000
H      -44.59870000     -34.43350000     -71.57200000
H      -44.70410000     -36.19690000     -70.97690000
C      -47.06570000     -34.26910000     -72.71510000
H      -46.51060000     -35.11880000     -72.69730000
H      -47.93910000     -34.59200000     -73.29770000
C      -47.56100000     -33.90110000     -71.33950000
C      -48.84470000     -33.38520000     -71.30990000
C      -46.88250000     -34.07340000     -70.12290000
H      -49.53140000     -33.14620000     -72.17550000
C      -47.78870000     -33.79290000     -69.06300000
C      -45.61570000     -34.71200000     -69.75590000
C      -45.61690000     -34.84690000     -68.38980000
S      -49.29140000     -33.15730000     -69.60720000
S      -47.00070000     -34.10360000     -67.51380000
H      -44.88630000     -35.23480000     -67.73920000
