40
Properties=species:S:1:pos:R:3 #=T CELL(abcABC):=T 1.889726e+02=T 90.00000=T Traj:=T positionsangstrom=T Step:=T 0=T Bead:=T pbc="F F F"
C      -45.01890000     -36.13140000     -68.81730000
C      -45.48480000     -34.91210000     -68.29540000
C      -44.72170000     -33.77920000     -68.38040000
C      -43.43450000     -33.79230000     -68.89230000
C      -42.93650000     -35.04320000     -69.30390000
C      -43.75660000     -36.18460000     -69.35210000
H      -45.58280000     -37.07320000     -68.65680000
H      -45.09280000     -32.83280000     -67.86410000
H      -41.94710000     -34.99650000     -69.78450000
H      -43.35550000     -37.15330000     -69.73910000
C      -42.68720000     -32.44140000     -68.94900000
H      -41.84560000     -32.28430000     -68.21020000
H      -43.49700000     -31.69420000     -68.84970000
C      -46.80170000     -34.87410000     -67.57440000
H      -47.26110000     -35.81640000     -67.51210000
H      -46.73390000     -34.53710000     -66.54780000
S      -41.92110000     -32.15890000     -70.63480000
S      -47.93670000     -33.61790000     -68.38830000
C      -43.20040000     -30.93640000     -71.17730000
H      -43.28980000     -30.19840000     -70.35480000
H      -42.69270000     -30.35390000     -71.99040000
C      -47.78380000     -33.96800000     -70.19240000
H      -48.69610000     -34.56970000     -70.51420000
H      -46.92190000     -34.55590000     -70.24570000
C      -47.71440000     -32.76570000     -71.16970000
H      -48.68200000     -32.33960000     -71.31810000
H      -46.95930000     -32.02930000     -70.75690000
C      -44.58780000     -31.43500000     -71.50130000
H      -45.31720000     -30.60640000     -71.40390000
H      -44.86130000     -32.06930000     -70.60130000
C      -44.83160000     -32.08440000     -72.82620000
C      -43.93270000     -31.96660000     -73.85790000
C      -46.01720000     -32.85610000     -73.18820000
H      -42.93340000     -31.53690000     -73.89940000
C      -45.94920000     -33.23630000     -74.57120000
C      -47.18510000     -33.21870000     -72.53480000
C      -48.04570000     -33.93560000     -73.37280000
S      -44.54580000     -32.68790000     -75.37870000
S      -47.39210000     -34.11190000     -75.01390000
H      -48.96840000     -34.37980000     -73.19140000
