40
Properties=species:S:1:pos:R:3 #=T CELL(abcABC):=T 1.889726e+02=T 90.00000=T Traj:=T positionsangstrom=T Step:=T 0=T Bead:=T pbc="F F F"
C      -48.07020000     -30.20080000     -70.79970000
C      -47.81730000     -30.88430000     -72.03080000
C      -48.04390000     -32.30940000     -72.02490000
C      -48.24440000     -32.98720000     -70.82310000
C      -48.49570000     -32.24840000     -69.66020000
C      -48.54360000     -30.87830000     -69.62150000
H      -47.94730000     -29.20300000     -70.63990000
H      -47.79490000     -32.85090000     -72.92720000
H      -48.50580000     -32.77060000     -68.71550000
H      -48.76840000     -30.26200000     -68.76520000
C      -48.18290000     -34.49840000     -70.70200000
H      -49.16600000     -35.01690000     -70.54040000
H      -47.66640000     -34.87250000     -69.82380000
C      -47.41140000     -30.19690000     -73.35560000
H      -48.15290000     -30.40310000     -74.09250000
H      -47.25060000     -29.06810000     -73.18510000
S      -47.50260000     -35.22960000     -72.16020000
S      -45.94180000     -30.82650000     -74.22960000
C      -46.28910000     -36.46950000     -71.43460000
H      -46.27970000     -36.17640000     -70.41070000
H      -46.81830000     -37.45300000     -71.56300000
C      -44.61630000     -31.26290000     -72.94100000
H      -44.83760000     -30.76270000     -72.09370000
H      -43.65160000     -30.99250000     -73.34980000
C      -44.71290000     -32.81340000     -72.61470000
H      -45.66670000     -33.02570000     -72.22210000
H      -44.59210000     -33.44010000     -73.45520000
C      -44.91260000     -36.40730000     -71.97980000
H      -44.93140000     -35.84840000     -72.89940000
H      -44.60230000     -37.39110000     -72.29880000
C      -43.86930000     -35.85260000     -71.05210000
C      -43.24390000     -36.68480000     -70.15200000
C      -43.34120000     -34.52790000     -70.96640000
H      -43.53110000     -37.68260000     -69.88930000
C      -42.32380000     -34.38870000     -70.01330000
C      -43.68830000     -33.20270000     -71.48410000
C      -42.78110000     -32.20090000     -71.07380000
S      -42.08590000     -35.83480000     -69.12240000
S      -41.75380000     -32.78360000     -69.77930000
H      -42.90690000     -31.15690000     -71.23490000
