40
Properties=species:S:1:pos:R:3 #=T CELL(abcABC):=T 1.889726e+02=T 90.00000=T Traj:=T positionsangstrom=T Step:=T 0=T Bead:=T pbc="F F F"
C      -48.04170000     -30.10000000     -70.94300000
C      -47.72960000     -30.82120000     -72.07760000
C      -47.91170000     -32.26440000     -72.00670000
C      -48.13610000     -32.90360000     -70.82600000
C      -48.40880000     -32.14290000     -69.69490000
C      -48.43880000     -30.79110000     -69.82290000
H      -48.08860000     -29.09960000     -70.96380000
H      -47.80050000     -32.83520000     -72.92080000
H      -48.59090000     -32.57140000     -68.69840000
H      -48.78550000     -30.07720000     -68.97900000
C      -48.25390000     -34.43310000     -70.67640000
H      -49.33030000     -34.70660000     -70.68370000
H      -47.79420000     -34.67260000     -69.72270000
C      -47.31100000     -30.06090000     -73.27790000
H      -48.23850000     -29.95530000     -73.89220000
H      -47.00380000     -29.02350000     -72.96070000
S      -47.44510000     -35.42200000     -72.11280000
S      -46.07170000     -30.98550000     -74.29750000
C      -46.21180000     -36.56080000     -71.48340000
H      -46.26090000     -36.45100000     -70.44640000
H      -46.52090000     -37.58930000     -71.58750000
C      -44.77170000     -31.42150000     -73.08850000
H      -44.55910000     -30.56970000     -72.38360000
H      -43.86290000     -31.37620000     -73.79870000
C      -44.83130000     -32.89580000     -72.44560000
H      -45.89290000     -33.10670000     -72.14080000
H      -44.61600000     -33.54210000     -73.35070000
C      -44.84860000     -36.36130000     -72.04930000
H      -44.85350000     -35.64760000     -72.87780000
H      -44.45510000     -37.33290000     -72.40950000
C      -43.89230000     -35.85190000     -71.03240000
C      -43.18180000     -36.66330000     -70.17560000
C      -43.48520000     -34.46230000     -70.81620000
H      -43.21340000     -37.72010000     -70.14590000
C      -42.40340000     -34.34050000     -69.96840000
C      -43.78940000     -33.12160000     -71.38770000
C      -42.88820000     -32.17520000     -70.93730000
S      -42.04130000     -35.82430000     -69.14610000
S      -41.75900000     -32.71320000     -69.70570000
H      -42.77670000     -31.16140000     -71.31520000
