40
Properties=species:S:1:pos:R:3 #=T CELL(abcABC):=T 1.889726e+02=T 90.00000=T Traj:=T positionsangstrom=T Step:=T 0=T Bead:=T pbc="F F F"
C      -47.86690000     -30.17020000     -70.94400000
C      -47.92540000     -30.92670000     -72.09180000
C      -48.13310000     -32.26910000     -71.94730000
C      -48.24670000     -32.95840000     -70.72740000
C      -48.19060000     -32.15520000     -69.55920000
C      -48.03790000     -30.80090000     -69.66980000
H      -47.76550000     -29.04530000     -71.05000000
H      -47.95260000     -32.93220000     -72.81020000
H      -48.01900000     -32.68800000     -68.59490000
H      -47.98280000     -30.15230000     -68.80550000
C      -48.38650000     -34.44030000     -70.66390000
H      -49.48860000     -34.67530000     -70.73030000
H      -48.03460000     -34.94190000     -69.72530000
C      -47.71240000     -30.46390000     -73.54040000
H      -48.67680000     -30.72390000     -74.20160000
H      -47.44280000     -29.35110000     -73.67730000
S      -47.53460000     -35.26400000     -72.15150000
S      -46.25680000     -31.40980000     -74.29000000
C      -46.20820000     -36.31660000     -71.32460000
H      -46.13600000     -35.84120000     -70.35710000
H      -46.61890000     -37.28130000     -71.27380000
C      -45.01980000     -31.33690000     -72.94820000
H      -45.54430000     -31.02860000     -71.98790000
H      -44.24930000     -30.54450000     -73.17450000
C      -44.46250000     -32.76140000     -72.69190000
H      -45.41280000     -33.41290000     -72.54740000
H      -44.04630000     -33.28600000     -73.55710000
C      -44.79970000     -36.20260000     -72.09640000
H      -44.82400000     -35.49550000     -72.93140000
H      -44.56300000     -37.14790000     -72.56560000
C      -43.73620000     -35.73710000     -71.17120000
C      -43.07370000     -36.57350000     -70.26920000
C      -43.32620000     -34.38780000     -70.92880000
H      -43.13470000     -37.65800000     -70.26600000
C      -42.33930000     -34.30310000     -69.88690000
C      -43.57260000     -33.01640000     -71.50430000
C      -42.95710000     -32.06950000     -70.80270000
S      -41.84510000     -35.83710000     -69.28410000
S      -41.87360000     -32.62130000     -69.51460000
H      -43.04870000     -31.01850000     -71.02250000
