40
Properties=species:S:1:pos:R:3 #=T CELL(abcABC):=T 1.889726e+02=T 90.00000=T Traj:=T positionsangstrom=T Step:=T 0=T Bead:=T pbc="F F F"
C      -47.52000000     -30.72350000     -70.88770000
C      -47.82020000     -31.38150000     -72.04710000
C      -48.13280000     -32.76430000     -71.93310000
C      -48.33820000     -33.40070000     -70.74550000
C      -48.08290000     -32.74710000     -69.53820000
C      -47.64940000     -31.42200000     -69.62070000
H      -47.28140000     -29.70330000     -70.94520000
H      -48.33940000     -33.18670000     -72.86890000
H      -48.23340000     -33.32270000     -68.56220000
H      -47.33360000     -30.93420000     -68.65580000
C      -48.86160000     -34.78960000     -70.69370000
H      -49.84210000     -34.82150000     -71.17000000
H      -48.90930000     -35.03220000     -69.62680000
C      -47.56930000     -30.66200000     -73.40970000
H      -48.37530000     -30.70120000     -74.12380000
H      -47.50240000     -29.57790000     -73.06100000
S      -47.81960000     -36.07700000     -71.53130000
S      -46.15180000     -30.94900000     -74.41560000
C      -46.15100000     -35.75850000     -70.81550000
H      -46.03350000     -34.73060000     -70.43070000
H      -46.03850000     -36.43020000     -69.90460000
C      -44.78790000     -31.25550000     -73.14210000
H      -44.87450000     -30.48360000     -72.32800000
H      -43.78190000     -31.15670000     -73.57910000
C      -44.81670000     -32.65270000     -72.54970000
H      -45.85800000     -33.02210000     -72.35340000
H      -44.46330000     -33.36870000     -73.29920000
C      -44.96850000     -36.01190000     -71.81570000
H      -45.26530000     -35.62990000     -72.75710000
H      -44.89120000     -37.11870000     -72.04630000
C      -43.68070000     -35.45710000     -71.32050000
C      -42.83340000     -36.30980000     -70.62690000
C      -43.35560000     -34.03970000     -71.00270000
H      -42.90430000     -37.39530000     -70.64290000
C      -42.26100000     -33.94140000     -70.18780000
C      -43.83510000     -32.75770000     -71.42790000
C      -43.20350000     -31.71810000     -70.88740000
S      -41.62390000     -35.49150000     -69.65590000
S      -41.94960000     -32.27450000     -69.74220000
H      -43.42270000     -30.66280000     -70.97830000
