40
Properties=species:S:1:pos:R:3 #=T CELL(abcABC):=T 1.889726e+02=T 90.00000=T Traj:=T positionsangstrom=T Step:=T 0=T Bead:=T pbc="F F F"
C      -47.44690000     -31.23800000     -70.78520000
C      -48.10970000     -31.55900000     -71.98630000
C      -48.63140000     -32.83720000     -72.14590000
C      -48.72410000     -33.66770000     -71.02960000
C      -48.15190000     -33.28550000     -69.81280000
C      -47.55020000     -32.04870000     -69.61870000
H      -47.13630000     -30.18670000     -70.69320000
H      -49.07710000     -33.06480000     -73.15850000
H      -48.47180000     -33.92840000     -69.00530000
H      -47.18550000     -31.73400000     -68.68230000
C      -49.22650000     -35.06750000     -71.11490000
H      -49.92340000     -35.21340000     -71.97040000
H      -49.76830000     -35.35550000     -70.15760000
C      -47.92870000     -30.71250000     -73.18880000
H      -48.90660000     -30.78210000     -73.83540000
H      -47.82450000     -29.65010000     -72.89090000
S      -47.73130000     -36.19770000     -71.39970000
S      -46.38610000     -31.05480000     -74.29370000
C      -46.19600000     -35.27800000     -70.81700000
H      -46.40220000     -34.22270000     -70.86650000
H      -46.04190000     -35.58060000     -69.72680000
C      -45.00210000     -31.06250000     -73.01700000
H      -45.11420000     -30.22900000     -72.27420000
H      -44.06130000     -30.76930000     -73.56670000
C      -44.81380000     -32.46780000     -72.38380000
H      -45.79610000     -32.82020000     -71.97160000
H      -44.66150000     -33.19380000     -73.19750000
C      -44.95190000     -35.71650000     -71.70520000
H      -45.01660000     -35.20930000     -72.75080000
H      -45.09560000     -36.78250000     -71.73260000
C      -43.65910000     -35.24110000     -71.12580000
C      -42.81320000     -36.10410000     -70.38160000
C      -43.14450000     -33.87320000     -71.04140000
H      -43.13670000     -37.14370000     -70.23430000
C      -42.03970000     -33.76610000     -70.21680000
C      -43.66730000     -32.55740000     -71.42010000
C      -42.94900000     -31.56580000     -70.81580000
S      -41.38940000     -35.33050000     -69.73030000
S      -41.51080000     -32.14320000     -69.92890000
H      -42.94590000     -30.46170000     -70.91130000
