40
Properties=species:S:1:pos:R:3 #=T CELL(abcABC):=T 1.889726e+02=T 90.00000=T Traj:=T positionsangstrom=T Step:=T 0=T Bead:=T pbc="F F F"
C      -47.88970000     -31.08480000     -70.69550000
C      -48.36670000     -31.50330000     -71.94670000
C      -48.86770000     -32.82000000     -72.07400000
C      -48.54330000     -33.72310000     -71.07480000
C      -48.17360000     -33.26340000     -69.80290000
C      -47.83800000     -31.92620000     -69.61150000
H      -47.45740000     -30.07940000     -70.68890000
H      -49.15480000     -33.15770000     -73.03470000
H      -47.90560000     -33.98500000     -69.08880000
H      -47.37450000     -31.56340000     -68.76790000
C      -48.98110000     -35.19670000     -71.25690000
H      -49.67650000     -35.20790000     -72.09710000
H      -49.47560000     -35.45390000     -70.32560000
C      -48.22310000     -30.62700000     -73.10530000
H      -48.97770000     -30.79010000     -73.83010000
H      -48.14150000     -29.63310000     -72.90830000
S      -47.56740000     -36.37740000     -71.58430000
S      -46.54130000     -31.08450000     -74.01440000
C      -46.07000000     -35.54810000     -70.88810000
H      -46.41950000     -34.55370000     -70.76730000
H      -45.90060000     -35.84940000     -69.88250000
C      -45.24390000     -31.01250000     -72.77580000
H      -45.45010000     -30.25110000     -72.10890000
H      -44.33470000     -30.72820000     -73.27470000
C      -45.00320000     -32.36680000     -72.04260000
H      -45.68770000     -32.48850000     -71.19900000
H      -45.20290000     -33.22210000     -72.68170000
C      -44.82600000     -35.74760000     -71.72960000
H      -45.00510000     -35.22700000     -72.67010000
H      -44.62070000     -36.73870000     -72.05070000
C      -43.59800000     -35.19280000     -71.08230000
C      -42.69880000     -36.07030000     -70.41060000
C      -43.13040000     -33.86290000     -70.92390000
H      -42.90020000     -37.15890000     -70.33940000
C      -41.93790000     -33.66870000     -70.18060000
C      -43.63330000     -32.53430000     -71.40500000
C      -42.68930000     -31.56290000     -71.20140000
S      -41.37840000     -35.25000000     -69.64980000
S      -41.27320000     -32.13260000     -70.26720000
H      -42.62560000     -30.49840000     -71.48200000
