40
Properties=species:S:1:pos:R:3 #=T CELL(abcABC):=T 1.889726e+02=T 90.00000=T Traj:=T positionsangstrom=T Step:=T 0=T Bead:=T pbc="F F F"
C      -45.03550000     -36.21240000     -68.74600000
C      -45.52880000     -35.01940000     -68.31450000
C      -44.68990000     -33.88140000     -68.34370000
C      -43.40660000     -33.87290000     -68.81710000
C      -42.97520000     -35.12250000     -69.41830000
C      -43.71110000     -36.26700000     -69.30770000
H      -45.67800000     -37.10850000     -68.76360000
H      -45.23370000     -32.92390000     -68.05210000
H      -41.98930000     -35.16720000     -69.86010000
H      -43.38700000     -37.18330000     -69.81270000
C      -42.46140000     -32.65870000     -68.83260000
H      -41.42880000     -32.88650000     -68.55280000
H      -42.74080000     -32.00810000     -68.06250000
C      -46.94840000     -34.96180000     -67.85910000
H      -47.45560000     -35.93970000     -68.02640000
H      -46.87480000     -34.74150000     -66.72070000
S      -42.00140000     -31.99070000     -70.50300000
S      -47.96110000     -33.61140000     -68.54740000
C      -43.28630000     -30.76150000     -71.02590000
H      -43.24440000     -29.94720000     -70.28470000
H      -42.89460000     -30.30890000     -71.94710000
C      -47.81630000     -34.12280000     -70.33790000
H      -48.72020000     -34.70660000     -70.61200000
H      -47.03880000     -34.78420000     -70.56080000
C      -47.58770000     -32.91170000     -71.13890000
H      -48.52520000     -32.33060000     -71.05900000
H      -46.79920000     -32.22110000     -70.77560000
C      -44.61360000     -31.45160000     -71.42250000
H      -45.48000000     -30.69730000     -71.33540000
H      -44.83120000     -32.24650000     -70.74150000
C      -44.83730000     -31.96330000     -72.79410000
C      -43.91690000     -31.91420000     -73.81340000
C      -46.04080000     -32.74150000     -73.18240000
H      -42.92670000     -31.52270000     -73.92300000
C      -45.96600000     -33.16770000     -74.55300000
C      -47.23910000     -33.14490000     -72.59220000
C      -48.07470000     -33.75020000     -73.49210000
S      -44.48720000     -32.72290000     -75.27930000
S      -47.33940000     -34.05760000     -75.04580000
H      -49.05040000     -34.13630000     -73.21820000
