40
Properties=species:S:1:pos:R:3 #=T CELL(abcABC):=T 1.889726e+02=T 90.00000=T Traj:=T positionsangstrom=T Step:=T 0=T Bead:=T pbc="F F F"
C      -48.53890000     -35.30850000     -72.53570000
C      -48.31450000     -35.01040000     -71.14530000
C      -48.36700000     -33.65730000     -70.82850000
C      -48.57470000     -32.67650000     -71.77500000
C      -48.76770000     -32.93640000     -73.15150000
C      -48.68240000     -34.32200000     -73.49020000
H      -48.41210000     -36.32590000     -72.84740000
H      -48.08530000     -33.41280000     -69.75750000
H      -49.11200000     -32.22870000     -73.83970000
H      -48.66780000     -34.78130000     -74.47240000
C      -48.47090000     -31.16300000     -71.44700000
H      -48.75730000     -31.05690000     -70.31840000
H      -49.15790000     -30.66960000     -72.11690000
C      -47.80490000     -36.04370000     -70.17040000
H      -47.32440000     -35.56300000     -69.31750000
H      -48.56510000     -36.76000000     -69.69180000
S      -46.65330000     -30.54880000     -71.66380000
S      -46.58870000     -37.06630000     -71.05390000
C      -46.07270000     -30.77420000     -69.90990000
H      -45.44500000     -29.89090000     -69.70370000
H      -47.00930000     -30.51260000     -69.31320000
C      -45.09630000     -35.85140000     -70.97000000
H      -44.20760000     -36.50430000     -71.14710000
H      -44.90260000     -35.40460000     -69.99160000
C      -45.10180000     -34.66130000     -72.04090000
H      -45.37140000     -35.00410000     -73.00650000
H      -45.83740000     -33.96980000     -71.67310000
C      -45.44550000     -32.13930000     -69.60370000
H      -45.94420000     -32.97850000     -70.08630000
H      -45.44700000     -32.31730000     -68.52420000
C      -43.96270000     -32.20060000     -69.99710000
C      -43.03530000     -31.43020000     -69.38490000
C      -43.33490000     -33.07810000     -71.05040000
H      -43.19170000     -30.77970000     -68.50260000
C      -42.00420000     -32.83220000     -71.16920000
C      -43.77980000     -34.08990000     -72.02830000
C      -42.73970000     -34.40260000     -72.87480000
S      -41.38480000     -31.58370000     -70.08800000
S      -41.18260000     -33.61270000     -72.48890000
H      -42.76740000     -35.11300000     -73.64950000
