40
Properties=species:S:1:pos:R:3 #=T CELL(abcABC):=T 1.889726e+02=T 90.00000=T Traj:=T positionsangstrom=T Step:=T 0=T Bead:=T pbc="F F F"
C      -48.83400000     -31.84710000     -69.71940000
C      -48.27650000     -31.97520000     -70.98820000
C      -48.32140000     -33.23930000     -71.51410000
C      -48.83840000     -34.35170000     -70.73170000
C      -49.41620000     -34.11380000     -69.52460000
C      -49.44150000     -32.81640000     -68.94720000
H      -48.93500000     -30.78850000     -69.31710000
H      -47.77500000     -33.55200000     -72.41890000
H      -49.87510000     -34.97240000     -69.08030000
H      -49.75850000     -32.55540000     -67.94460000
C      -48.83630000     -35.74500000     -71.30110000
H      -49.53710000     -35.78610000     -72.09520000
H      -49.18490000     -36.48070000     -70.57590000
C      -47.90150000     -30.71640000     -71.69020000
H      -48.74670000     -30.03910000     -71.96190000
H      -47.32790000     -30.10140000     -71.00290000
S      -47.28140000     -36.06980000     -72.22620000
S      -46.99610000     -30.94300000     -73.29460000
C      -45.95220000     -35.63540000     -71.02800000
H      -46.11400000     -34.64040000     -70.75630000
H      -46.10130000     -36.22930000     -70.13430000
C      -45.19770000     -30.89440000     -72.82770000
H      -45.17380000     -30.53220000     -71.81420000
H      -44.60500000     -30.17740000     -73.44130000
C      -44.55720000     -32.31920000     -72.97970000
H      -45.24020000     -33.12180000     -72.68090000
H      -44.36250000     -32.46980000     -74.05640000
C      -44.59120000     -35.69090000     -71.77770000
H      -44.75480000     -35.23140000     -72.72290000
H      -44.38900000     -36.74710000     -71.85030000
C      -43.39600000     -34.97000000     -71.14080000
C      -42.56740000     -35.67530000     -70.26020000
C      -42.95260000     -33.59270000     -71.30420000
H      -42.81780000     -36.61950000     -69.79250000
C      -41.81030000     -33.28800000     -70.52840000
C      -43.30010000     -32.43340000     -72.16130000
C      -42.35130000     -31.44310000     -72.03720000
S      -41.11490000     -34.76010000     -69.82880000
S      -41.02720000     -31.81010000     -70.91680000
H      -42.58690000     -30.49690000     -72.46830000
