40
Properties=species:S:1:pos:R:3 #=T CELL(abcABC):=T 1.889726e+02=T 90.00000=T Traj:=T positionsangstrom=T Step:=T 0=T Bead:=T pbc="F F F"
C      -48.65630000     -31.88340000     -69.46630000
C      -48.44720000     -31.97380000     -70.87720000
C      -48.39290000     -33.18050000     -71.47030000
C      -48.54010000     -34.37650000     -70.73530000
C      -48.88600000     -34.27180000     -69.39550000
C      -48.97400000     -33.03180000     -68.76070000
H      -48.54840000     -30.90620000     -68.99010000
H      -48.47260000     -33.30900000     -72.60690000
H      -49.05960000     -35.17030000     -68.79120000
H      -49.10310000     -33.00300000     -67.66870000
C      -48.63600000     -35.71460000     -71.40980000
H      -49.37050000     -35.59110000     -72.15800000
H      -49.05580000     -36.47290000     -70.77320000
C      -48.26450000     -30.70110000     -71.69980000
H      -49.28240000     -30.27590000     -71.98040000
H      -47.92850000     -29.96070000     -71.01270000
S      -47.09990000     -36.18040000     -72.31090000
S      -47.21680000     -30.81650000     -73.18080000
C      -45.75070000     -35.61410000     -71.16680000
H      -45.98020000     -34.66930000     -70.75700000
H      -45.64320000     -36.32740000     -70.28450000
C      -45.54230000     -30.87240000     -72.57910000
H      -45.62110000     -30.76590000     -71.54140000
H      -44.97790000     -30.02230000     -72.97610000
C      -44.83420000     -32.27510000     -72.77570000
H      -45.49410000     -33.02790000     -72.43460000
H      -44.63260000     -32.65300000     -73.81740000
C      -44.45700000     -35.70740000     -71.92780000
H      -44.53590000     -35.14570000     -72.83870000
H      -44.15650000     -36.70950000     -72.10960000
C      -43.38380000     -34.99960000     -71.21200000
C      -42.47150000     -35.70200000     -70.47710000
C      -43.00980000     -33.58400000     -71.38300000
H      -42.66090000     -36.73490000     -70.26360000
C      -41.75900000     -33.34540000     -70.80710000
C      -43.50400000     -32.40050000     -72.10040000
C      -42.65550000     -31.37620000     -71.87160000
S      -41.09240000     -34.74620000     -69.92930000
S      -41.15130000     -31.72510000     -71.00090000
H      -42.77860000     -30.31340000     -72.29150000
