40
Properties=species:S:1:pos:R:3 #=T CELL(abcABC):=T 1.889726e+02=T 90.00000=T Traj:=T positionsangstrom=T Step:=T 0=T Bead:=T pbc="F F F"
C      -48.21610000     -31.94600000     -69.53460000
C      -48.33930000     -32.07880000     -70.90180000
C      -48.55090000     -33.33730000     -71.51740000
C      -48.59610000     -34.46910000     -70.68410000
C      -48.52560000     -34.29600000     -69.26640000
C      -48.41380000     -33.06550000     -68.66040000
H      -48.02180000     -30.94800000     -69.05300000
H      -48.49760000     -33.41730000     -72.66530000
H      -48.79260000     -35.16870000     -68.64930000
H      -48.44910000     -32.87850000     -67.58150000
C      -48.76790000     -35.78010000     -71.32430000
H      -49.69650000     -35.90120000     -71.95710000
H      -48.85750000     -36.52650000     -70.44870000
C      -48.39710000     -30.81280000     -71.69650000
H      -49.37260000     -30.68950000     -72.15120000
H      -48.06840000     -30.00400000     -71.05170000
S      -47.25960000     -36.17710000     -72.31180000
S      -47.21670000     -30.66600000     -73.16800000
C      -45.87450000     -35.66390000     -71.23930000
H      -46.19650000     -34.73360000     -70.72160000
H      -45.81150000     -36.35090000     -70.33850000
C      -45.57790000     -30.92360000     -72.26430000
H      -45.72580000     -30.78990000     -71.16260000
H      -44.92850000     -30.06330000     -72.61350000
C      -44.95850000     -32.30010000     -72.66300000
H      -45.61390000     -33.08270000     -72.26210000
H      -44.97220000     -32.27270000     -73.78310000
C      -44.55230000     -35.62930000     -72.00730000
H      -44.73320000     -35.03160000     -72.93080000
H      -44.37940000     -36.65970000     -72.40620000
C      -43.36680000     -34.95140000     -71.26470000
C      -42.40520000     -35.72030000     -70.62150000
C      -43.02330000     -33.53890000     -71.45220000
H      -42.36870000     -36.72760000     -70.50890000
C      -41.74100000     -33.31560000     -70.93910000
C      -43.57920000     -32.35710000     -72.03060000
C      -42.77580000     -31.26070000     -71.83390000
S      -41.02830000     -34.74620000     -70.07950000
S      -41.24400000     -31.70300000     -70.97320000
H      -42.82740000     -30.20750000     -72.04760000
