40
Properties=species:S:1:pos:R:3 #=T CELL(abcABC):=T 1.889726e+02=T 90.00000=T Traj:=T positionsangstrom=T Step:=T 0=T Bead:=T pbc="F F F"
C      -47.93130000     -31.96100000     -69.54130000
C      -48.48870000     -32.04810000     -70.80800000
C      -48.79190000     -33.30650000     -71.45470000
C      -48.63550000     -34.43870000     -70.64000000
C      -48.12900000     -34.32950000     -69.33020000
C      -47.80510000     -33.08310000     -68.79190000
H      -47.78780000     -30.95360000     -69.13380000
H      -49.28830000     -33.31180000     -72.44470000
H      -47.76940000     -35.22580000     -68.85140000
H      -47.32860000     -33.00410000     -67.81820000
C      -48.75010000     -35.83980000     -71.18630000
H      -49.59080000     -36.07920000     -71.80700000
H      -48.69060000     -36.48960000     -70.34100000
C      -48.60520000     -30.86670000     -71.72430000
H      -49.53200000     -30.92250000     -72.28810000
H      -48.67160000     -29.82810000     -71.28260000
S      -47.34270000     -36.26780000     -72.29860000
S      -47.29820000     -30.71930000     -73.12780000
C      -45.82670000     -35.76200000     -71.30540000
H      -46.08080000     -34.80060000     -70.81480000
H      -45.63270000     -36.55750000     -70.65090000
C      -45.71310000     -30.85800000     -72.29830000
H      -45.90490000     -30.64640000     -71.23130000
H      -45.05900000     -30.08430000     -72.58970000
C      -44.96560000     -32.17680000     -72.51700000
H      -45.45620000     -33.05290000     -72.01290000
H      -44.89000000     -32.43410000     -73.52090000
C      -44.58030000     -35.51830000     -72.16160000
H      -44.77840000     -34.94540000     -73.08100000
H      -44.14820000     -36.46560000     -72.45390000
C      -43.40600000     -34.88510000     -71.39610000
C      -42.44720000     -35.70380000     -70.86520000
C      -43.04530000     -33.49250000     -71.42740000
H      -42.42250000     -36.73350000     -71.03040000
C      -41.80050000     -33.26850000     -70.78680000
C      -43.57360000     -32.23800000     -71.91730000
C      -42.73000000     -31.20330000     -71.68130000
S      -41.06420000     -34.81580000     -70.22760000
S      -41.25280000     -31.65390000     -70.87050000
H      -42.82140000     -30.24970000     -72.04660000
