40
Properties=species:S:1:pos:R:3 #=T CELL(abcABC):=T 1.889726e+02=T 90.00000=T Traj:=T positionsangstrom=T Step:=T 0=T Bead:=T pbc="F F F"
C      -42.73610000     -34.36180000     -73.26370000
C      -43.36670000     -33.20070000     -73.76240000
C      -43.04560000     -32.03310000     -73.13440000
C      -42.07930000     -31.91990000     -72.08030000
C      -41.45430000     -33.08530000     -71.64210000
C      -41.71660000     -34.28140000     -72.35120000
H      -43.02710000     -35.26460000     -73.76150000
H      -43.45690000     -31.10420000     -73.49160000
H      -40.77280000     -33.13620000     -70.77660000
H      -41.28950000     -35.20810000     -71.98010000
C      -42.04290000     -30.63950000     -71.27680000
H      -41.27920000     -29.91390000     -71.72350000
H      -41.65170000     -30.78000000     -70.20200000
C      -44.36150000     -33.16660000     -74.87460000
H      -44.79330000     -32.12910000     -74.86890000
H      -43.97760000     -33.27320000     -75.83590000
S      -43.70460000     -29.90000000     -71.15490000
S      -45.59470000     -34.59920000     -74.95790000
C      -44.64110000     -31.09890000     -70.12880000
H      -43.99150000     -31.93400000     -69.77210000
H      -45.00490000     -30.59350000     -69.24390000
C      -46.39000000     -34.45710000     -73.24630000
H      -47.31020000     -34.91680000     -73.47400000
H      -46.59310000     -33.42300000     -72.90140000
C      -45.58750000     -35.13190000     -72.13480000
H      -45.16880000     -36.15020000     -72.43520000
H      -44.73410000     -34.52860000     -71.94290000
C      -45.80830000     -31.76290000     -70.91690000
H      -45.39840000     -32.40000000     -71.70160000
H      -46.42000000     -30.93710000     -71.27730000
C      -46.67760000     -32.63840000     -70.00250000
C      -47.30020000     -32.08700000     -68.94250000
C      -46.90370000     -34.09790000     -70.06470000
H      -47.19120000     -31.01960000     -68.67450000
C      -47.64740000     -34.53680000     -68.95900000
C      -46.43710000     -35.23610000     -70.89390000
C      -47.00210000     -36.39090000     -70.41320000
S      -48.35160000     -33.22020000     -68.01340000
S      -47.97520000     -36.30110000     -68.94360000
H      -46.67140000     -37.30910000     -70.87690000
