40
Properties=species:S:1:pos:R:3 #=T CELL(abcABC):=T 1.889726e+02=T 90.00000=T Traj:=T positionsangstrom=T Step:=T 0=T Bead:=T pbc="F F F"
C      -47.70880000     -31.80490000     -69.28030000
C      -48.19850000     -31.99880000     -70.57220000
C      -48.32780000     -33.27510000     -71.07810000
C      -48.15770000     -34.37900000     -70.29600000
C      -47.75530000     -34.17710000     -68.96260000
C      -47.48020000     -32.92120000     -68.41570000
H      -47.48140000     -30.76840000     -68.95130000
H      -48.67310000     -33.35470000     -72.12090000
H      -47.56010000     -35.09360000     -68.41260000
H      -47.06240000     -32.74850000     -67.46450000
C      -48.40500000     -35.75440000     -70.81190000
H      -49.35510000     -35.90270000     -71.28450000
H      -48.30190000     -36.48130000     -70.01630000
C      -48.53450000     -30.80450000     -71.42980000
H      -49.66690000     -30.79380000     -71.56460000
H      -48.24170000     -29.88720000     -70.95390000
S      -47.15410000     -36.24510000     -72.14870000
S      -47.76300000     -30.83610000     -73.12090000
C      -45.48970000     -36.02240000     -71.37690000
H      -45.70350000     -35.16830000     -70.76570000
H      -45.25840000     -36.99920000     -70.85060000
C      -45.87820000     -30.83760000     -72.52310000
H      -46.05590000     -30.30540000     -71.62760000
H      -45.30320000     -30.10740000     -73.16380000
C      -45.34750000     -32.24910000     -72.46780000
H      -46.09210000     -32.92580000     -72.14350000
H      -45.12730000     -32.51750000     -73.49020000
C      -44.49470000     -35.74460000     -72.53210000
H      -44.99670000     -35.00940000     -73.19130000
H      -44.22000000     -36.63230000     -73.02830000
C      -43.23780000     -35.03900000     -72.05410000
C      -42.06290000     -35.66040000     -71.91550000
C      -43.18540000     -33.63820000     -71.63190000
H      -41.76980000     -36.61100000     -72.26550000
C      -41.99920000     -33.30480000     -70.96420000
C      -44.03470000     -32.37510000     -71.63020000
C      -43.46350000     -31.29090000     -71.03130000
S      -40.82220000     -34.64800000     -71.18580000
S      -41.79910000     -31.61900000     -70.42220000
H      -43.96050000     -30.39050000     -71.11060000
