40
Properties=species:S:1:pos:R:3 #=T CELL(abcABC):=T 1.889726e+02=T 90.00000=T Traj:=T positionsangstrom=T Step:=T 0=T Bead:=T pbc="F F F"
C      -48.16880000     -31.97620000     -69.12800000
C      -48.55020000     -32.29260000     -70.48380000
C      -48.39680000     -33.59940000     -70.88240000
C      -48.00960000     -34.61100000     -69.91150000
C      -47.66200000     -34.24490000     -68.65990000
C      -47.80140000     -32.93110000     -68.21640000
H      -48.38480000     -31.00670000     -68.75450000
H      -48.46750000     -33.87520000     -71.95560000
H      -47.36760000     -35.02790000     -67.95730000
H      -47.50020000     -32.60920000     -67.19430000
C      -47.96270000     -36.05520000     -70.34770000
H      -48.91560000     -36.54140000     -70.34400000
H      -47.38860000     -36.62500000     -69.57960000
C      -48.98730000     -31.19670000     -71.37770000
H      -49.87170000     -31.48800000     -71.97560000
H      -49.25110000     -30.25850000     -70.83510000
S      -47.20380000     -36.35380000     -72.10330000
S      -47.71050000     -30.83100000     -72.68590000
C      -45.42920000     -35.90410000     -71.73450000
H      -45.33980000     -35.21160000     -70.92850000
H      -45.01180000     -36.76910000     -71.34310000
C      -46.13450000     -30.82570000     -71.76430000
H      -46.25670000     -30.63600000     -70.75000000
H      -45.51890000     -30.06460000     -72.28610000
C      -45.39310000     -32.16230000     -71.95020000
H      -45.84150000     -32.96840000     -71.37520000
H      -45.72010000     -32.49940000     -72.93740000
C      -44.62060000     -35.35060000     -72.87550000
H      -45.05740000     -34.56930000     -73.54730000
H      -44.42790000     -36.18710000     -73.52160000
C      -43.32160000     -34.74580000     -72.35640000
C      -42.13670000     -35.43470000     -72.32130000
C      -43.11300000     -33.41020000     -71.79720000
H      -41.97310000     -36.43300000     -72.66880000
C      -41.80670000     -33.21630000     -71.45410000
C      -43.96230000     -32.21680000     -71.61290000
C      -43.19630000     -31.19560000     -71.09740000
S      -40.75800000     -34.55220000     -71.69360000
S      -41.49840000     -31.53680000     -70.88480000
H      -43.61100000     -30.19460000     -70.80480000
