40
Properties=species:S:1:pos:R:3 #=T CELL(abcABC):=T 1.889726e+02=T 90.00000=T Traj:=T positionsangstrom=T Step:=T 0=T Bead:=T pbc="F F F"
C      -47.89460000     -32.28690000     -68.56900000
C      -48.30260000     -32.37370000     -69.89180000
C      -48.46490000     -33.57710000     -70.52320000
C      -48.20390000     -34.75590000     -69.70780000
C      -47.93440000     -34.62220000     -68.37710000
C      -47.73560000     -33.40860000     -67.74680000
H      -47.87960000     -31.28450000     -68.12700000
H      -48.79100000     -33.74920000     -71.56930000
H      -47.73020000     -35.50120000     -67.80750000
H      -47.48210000     -33.38590000     -66.67240000
C      -48.22370000     -36.16730000     -70.33910000
H      -49.21460000     -36.37240000     -70.73500000
H      -48.13890000     -37.04640000     -69.63870000
C      -48.60900000     -31.12300000     -70.60990000
H      -49.70420000     -31.12650000     -70.69460000
H      -48.20260000     -30.23830000     -70.08600000
S      -47.16540000     -36.37170000     -71.88340000
S      -47.92390000     -31.03210000     -72.25260000
C      -45.50630000     -35.66540000     -71.44500000
H      -45.68530000     -34.71180000     -70.90410000
H      -44.97950000     -36.35570000     -70.78690000
C      -46.12460000     -30.79220000     -72.08560000
H      -45.93630000     -29.96500000     -71.33730000
H      -45.78790000     -30.48020000     -73.11420000
C      -45.38430000     -32.03500000     -71.64910000
H      -45.67350000     -32.34070000     -70.63340000
H      -45.75870000     -32.94090000     -72.08820000
C      -44.67120000     -35.38900000     -72.75210000
H      -45.25260000     -34.76730000     -73.47170000
H      -44.50930000     -36.40670000     -73.09130000
C      -43.34970000     -34.67570000     -72.49230000
C      -42.22950000     -35.39570000     -72.53740000
C      -43.09800000     -33.24030000     -72.08530000
H      -42.09770000     -36.42340000     -72.76370000
C      -41.74030000     -33.02340000     -72.03590000
C      -43.90010000     -32.04460000     -71.87960000
C      -43.10770000     -30.98290000     -71.64990000
S      -40.74870000     -34.44130000     -72.22910000
S      -41.38910000     -31.35810000     -71.72020000
H      -43.33980000     -29.85950000     -71.40900000
