40
Properties=species:S:1:pos:R:3 #=T CELL(abcABC):=T 1.889726e+02=T 90.00000=T Traj:=T positionsangstrom=T Step:=T 0=T Bead:=T pbc="F F F"
C      -47.81350000     -32.27260000     -68.45370000
C      -48.18580000     -32.36580000     -69.74200000
C      -48.45540000     -33.61740000     -70.28090000
C      -48.16390000     -34.81590000     -69.58100000
C      -47.54860000     -34.67970000     -68.29640000
C      -47.42240000     -33.43200000     -67.71320000
H      -47.62510000     -31.29150000     -68.00650000
H      -48.91880000     -33.60830000     -71.34960000
H      -47.34480000     -35.58120000     -67.81370000
H      -47.02230000     -33.26810000     -66.69730000
C      -48.26950000     -36.08960000     -70.33130000
H      -49.27510000     -36.24260000     -70.64550000
H      -47.84970000     -36.86360000     -69.65410000
C      -48.52220000     -31.14100000     -70.49670000
H      -49.57660000     -30.91160000     -70.47040000
H      -48.07570000     -30.27170000     -69.98160000
S      -47.27380000     -36.09660000     -71.86020000
S      -47.94430000     -31.06110000     -72.27980000
C      -45.57440000     -35.52440000     -71.35580000
H      -45.71680000     -34.63850000     -70.77030000
H      -45.15880000     -36.28850000     -70.73820000
C      -46.11960000     -30.87430000     -72.02560000
H      -45.94810000     -30.19220000     -71.21740000
H      -45.70970000     -30.37770000     -72.86780000
C      -45.40110000     -32.17040000     -71.78410000
H      -45.65310000     -32.56950000     -70.79710000
H      -45.71100000     -32.94420000     -72.52940000
C      -44.82180000     -35.23480000     -72.65350000
H      -45.38290000     -34.51300000     -73.32450000
H      -44.69920000     -36.11920000     -73.31540000
C      -43.42810000     -34.70710000     -72.37450000
C      -42.29910000     -35.44490000     -72.48910000
C      -43.16220000     -33.28860000     -72.19840000
H      -42.33110000     -36.49970000     -72.70130000
C      -41.74900000     -33.07360000     -72.11590000
C      -43.93890000     -32.12960000     -71.87730000
C      -43.13330000     -31.03270000     -71.71680000
S      -40.79050000     -34.54380000     -72.35670000
S      -41.41780000     -31.40160000     -71.93710000
H      -43.44120000     -29.95320000     -71.56930000
