40
Properties=species:S:1:pos:R:3 #=T CELL(abcABC):=T 1.889726e+02=T 90.00000=T Traj:=T positionsangstrom=T Step:=T 0=T Bead:=T pbc="F F F"
C      -47.55510000     -32.22260000     -68.36870000
C      -48.15850000     -32.30580000     -69.62740000
C      -48.38340000     -33.54730000     -70.17930000
C      -48.03750000     -34.75570000     -69.54360000
C      -47.50240000     -34.60600000     -68.23130000
C      -47.16620000     -33.32950000     -67.69700000
H      -47.45540000     -31.21170000     -67.97150000
H      -48.64830000     -33.55930000     -71.27150000
H      -47.15190000     -35.53090000     -67.71920000
H      -46.74150000     -33.19380000     -66.69700000
C      -48.18100000     -36.06070000     -70.15670000
H      -49.24170000     -36.42600000     -70.20600000
H      -47.71810000     -36.81080000     -69.53000000
C      -48.54250000     -30.99820000     -70.44500000
H      -49.61160000     -31.07320000     -70.59990000
H      -48.36390000     -30.13010000     -69.81370000
S      -47.42750000     -36.05700000     -71.89600000
S      -47.99040000     -31.01600000     -72.15720000
C      -45.74620000     -35.69180000     -71.32400000
H      -45.62650000     -34.77580000     -70.74520000
H      -45.33250000     -36.48200000     -70.61290000
C      -46.14810000     -30.78330000     -72.08620000
H      -45.76070000     -30.13880000     -71.23400000
H      -45.76520000     -30.31130000     -73.01530000
C      -45.45290000     -32.17560000     -71.95010000
H      -45.68210000     -32.53830000     -70.96620000
H      -45.85690000     -32.78870000     -72.82140000
C      -44.77910000     -35.54630000     -72.55340000
H      -45.34760000     -35.11980000     -73.35370000
H      -44.49870000     -36.49470000     -72.95690000
C      -43.43230000     -34.78330000     -72.26190000
C      -42.28510000     -35.49270000     -72.57230000
C      -43.19470000     -33.32490000     -72.16090000
H      -42.15500000     -36.59590000     -72.50630000
C      -41.79200000     -33.11870000     -72.22970000
C      -43.95980000     -32.14640000     -71.99600000
C      -43.13610000     -31.02900000     -71.88990000
S      -40.82750000     -34.50040000     -72.52180000
S      -41.42510000     -31.48970000     -71.96230000
H      -43.34080000     -29.94820000     -71.67540000
