40
Properties=species:S:1:pos:R:3 #=T CELL(abcABC):=T 1.889726e+02=T 90.00000=T Traj:=T positionsangstrom=T Step:=T 0=T Bead:=T pbc="F F F"
C      -47.05610000     -31.90810000     -68.20950000
C      -47.83160000     -32.14140000     -69.34970000
C      -48.06060000     -33.43930000     -69.79200000
C      -47.61450000     -34.50200000     -69.04060000
C      -46.86500000     -34.34010000     -67.88530000
C      -46.69960000     -32.99280000     -67.39550000
H      -46.71390000     -30.88090000     -67.84270000
H      -48.73940000     -33.72180000     -70.62490000
H      -46.53050000     -35.25620000     -67.36620000
H      -46.03970000     -32.70830000     -66.58850000
C      -47.77660000     -35.94440000     -69.51970000
H      -48.82990000     -36.33120000     -69.46700000
H      -47.09700000     -36.58150000     -68.99100000
C      -48.36090000     -30.94650000     -70.11720000
H      -49.47720000     -30.79150000     -70.04810000
H      -47.92910000     -30.00470000     -69.71450000
S      -47.45570000     -36.11280000     -71.33330000
S      -48.04300000     -31.01060000     -71.95050000
C      -45.65410000     -35.73720000     -71.40840000
H      -45.42100000     -34.99930000     -70.55270000
H      -45.01440000     -36.64180000     -71.13880000
C      -46.18030000     -30.84330000     -72.08250000
H      -45.88170000     -30.28740000     -71.16930000
H      -46.07480000     -30.12910000     -72.88730000
C      -45.64170000     -32.19590000     -72.28130000
H      -46.02110000     -32.88500000     -71.49480000
H      -46.08650000     -32.63130000     -73.17510000
C      -45.23470000     -35.28180000     -72.75900000
H      -45.97810000     -34.49820000     -73.04530000
H      -45.37300000     -36.17870000     -73.41870000
C      -43.81760000     -34.75100000     -72.86860000
C      -42.74010000     -35.60660000     -72.97080000
C      -43.40090000     -33.44300000     -72.70010000
H      -42.84810000     -36.67870000     -72.96700000
C      -41.95630000     -33.28120000     -72.60000000
C      -44.10140000     -32.21090000     -72.41950000
C      -43.22210000     -31.17420000     -72.30780000
S      -41.18870000     -34.83740000     -72.73760000
S      -41.47050000     -31.59840000     -72.38920000
H      -43.50370000     -30.17850000     -72.05730000
