40
Properties=species:S:1:pos:R:3 #=T CELL(abcABC):=T 1.889726e+02=T 90.00000=T Traj:=T positionsangstrom=T Step:=T 0=T Bead:=T pbc="F F F"
C      -46.72820000     -31.69900000     -68.49420000
C      -47.79760000     -32.01660000     -69.41290000
C      -48.17590000     -33.37560000     -69.58570000
C      -47.41700000     -34.42130000     -68.99480000
C      -46.32690000     -34.08300000     -68.20950000
C      -45.98820000     -32.72340000     -67.94590000
H      -46.66590000     -30.68940000     -68.34980000
H      -49.12780000     -33.59160000     -70.01350000
H      -45.84680000     -34.88560000     -67.63720000
H      -45.07560000     -32.47910000     -67.39560000
C      -47.80720000     -35.81280000     -69.26550000
H      -48.85500000     -35.91570000     -68.94750000
H      -47.28060000     -36.56770000     -68.63480000
C      -48.51670000     -30.90730000     -70.03670000
H      -49.58220000     -31.11570000     -70.10860000
H      -48.44480000     -29.93950000     -69.52230000
S      -47.54910000     -36.24140000     -70.99970000
S      -48.00480000     -30.67040000     -71.89350000
C      -45.87640000     -35.51350000     -71.15110000
H      -45.99460000     -34.48790000     -70.81640000
H      -45.15540000     -36.11180000     -70.54410000
C      -46.15970000     -30.80550000     -72.01310000
H      -45.72590000     -30.25040000     -71.20500000
H      -45.77960000     -30.38960000     -72.95920000
C      -45.63900000     -32.22390000     -72.06590000
H      -45.97820000     -32.77010000     -71.18990000
H      -46.06130000     -32.69010000     -72.96970000
C      -45.33480000     -35.44660000     -72.56230000
H      -46.02260000     -35.00810000     -73.31170000
H      -45.44860000     -36.50600000     -72.96480000
C      -43.94820000     -34.98280000     -72.74830000
C      -42.86660000     -35.81380000     -72.97870000
C      -43.46860000     -33.63340000     -72.53020000
H      -42.99330000     -36.88030000     -73.08220000
C      -42.12990000     -33.42910000     -72.72030000
C      -44.10210000     -32.33980000     -72.25550000
C      -43.20520000     -31.32290000     -72.29980000
S      -41.35220000     -35.00310000     -73.07260000
S      -41.52550000     -31.74250000     -72.63150000
H      -43.46140000     -30.24520000     -72.17080000
