40
Properties=species:S:1:pos:R:3 #=T CELL(abcABC):=T 1.889726e+02=T 90.00000=T Traj:=T positionsangstrom=T Step:=T 0=T Bead:=T pbc="F F F"
C      -46.22800000     -31.52240000     -68.68970000
C      -47.50120000     -31.69680000     -69.23070000
C      -48.02050000     -32.99960000     -69.46290000
C      -47.38760000     -34.13370000     -68.94700000
C      -46.09420000     -33.97010000     -68.45680000
C      -45.49070000     -32.70590000     -68.29260000
H      -45.82380000     -30.50040000     -68.67160000
H      -48.98060000     -33.09210000     -69.99680000
H      -45.52060000     -34.79640000     -68.15940000
H      -44.49590000     -32.69410000     -67.93920000
C      -47.96810000     -35.49880000     -69.10290000
H      -49.09880000     -35.54920000     -69.21470000
H      -47.74690000     -36.05200000     -68.16480000
C      -48.20910000     -30.51050000     -69.83020000
H      -49.24880000     -30.65650000     -69.65950000
H      -47.83250000     -29.62260000     -69.34170000
S      -47.45030000     -36.58660000     -70.58670000
S      -47.92770000     -30.36270000     -71.60780000
C      -45.68330000     -36.06080000     -70.84270000
H      -45.35650000     -35.28810000     -70.08620000
H      -44.95940000     -36.85880000     -70.62700000
C      -46.12360000     -30.74650000     -71.91420000
H      -45.51610000     -30.29490000     -71.11690000
H      -45.80680000     -30.30560000     -72.83820000
C      -45.79790000     -32.22860000     -72.14960000
H      -46.17610000     -32.87120000     -71.40200000
H      -46.30710000     -32.51180000     -73.09240000
C      -45.45000000     -35.58450000     -72.34420000
H      -46.08660000     -34.73950000     -72.53750000
H      -45.72830000     -36.42140000     -72.93290000
C      -44.05280000     -35.13270000     -72.63470000
C      -42.98610000     -36.00360000     -73.01220000
C      -43.65240000     -33.73930000     -72.54470000
H      -43.02350000     -37.08980000     -73.03150000
C      -42.32520000     -33.59250000     -72.94520000
C      -44.28570000     -32.45480000     -72.34280000
C      -43.44450000     -31.40980000     -72.50220000
S      -41.60320000     -35.04980000     -73.48810000
S      -41.81230000     -31.89370000     -72.94280000
H      -43.65880000     -30.35510000     -72.41410000
