40
Properties=species:S:1:pos:R:3 #=T CELL(abcABC):=T 1.889726e+02=T 90.00000=T Traj:=T positionsangstrom=T Step:=T 0=T Bead:=T pbc="F F F"
C      -46.04310000     -31.57160000     -68.43280000
C      -47.16870000     -31.63040000     -69.28430000
C      -47.75340000     -32.90640000     -69.42000000
C      -47.18500000     -34.05880000     -69.00860000
C      -45.99160000     -34.03440000     -68.30660000
C      -45.38190000     -32.75570000     -68.06360000
H      -45.63620000     -30.52710000     -68.12810000
H      -48.74650000     -32.97370000     -69.84580000
H      -45.43920000     -34.91630000     -67.85610000
H      -44.53180000     -32.66090000     -67.38690000
C      -47.97020000     -35.41920000     -69.09910000
H      -49.00780000     -35.27610000     -69.30240000
H      -47.92700000     -35.90890000     -68.15950000
C      -47.91300000     -30.41390000     -69.71110000
H      -48.98280000     -30.39310000     -69.32440000
H      -47.43270000     -29.48850000     -69.30820000
S      -47.36400000     -36.54850000     -70.46830000
S      -47.95530000     -30.33490000     -71.60520000
C      -45.64590000     -36.14620000     -70.89410000
H      -45.33620000     -35.27590000     -70.37300000
H      -45.08050000     -37.04340000     -70.77900000
C      -46.14260000     -30.67100000     -71.86710000
H      -45.62350000     -30.43980000     -70.91430000
H      -45.78630000     -30.07760000     -72.72230000
C      -45.83950000     -32.13140000     -72.14560000
H      -46.01600000     -32.77140000     -71.25770000
H      -46.49560000     -32.64580000     -72.88670000
C      -45.62360000     -35.67040000     -72.44260000
H      -46.39410000     -34.84210000     -72.53780000
H      -46.05170000     -36.46030000     -73.11180000
C      -44.31810000     -35.13230000     -72.82720000
C      -43.23630000     -35.99060000     -73.14360000
C      -43.88510000     -33.73270000     -72.87660000
H      -43.36430000     -37.08010000     -73.07810000
C      -42.49180000     -33.64080000     -73.06770000
C      -44.39590000     -32.36870000     -72.55910000
C      -43.45160000     -31.40650000     -72.60860000
S      -41.71710000     -35.16100000     -73.36560000
S      -41.85100000     -31.98100000     -73.04940000
H      -43.66900000     -30.39070000     -72.50000000
