40
Properties=species:S:1:pos:R:3 #=T CELL(abcABC):=T 1.889726e+02=T 90.00000=T Traj:=T positionsangstrom=T Step:=T 0=T Bead:=T pbc="F F F"
C      -45.66250000     -31.79370000     -68.57700000
C      -46.93980000     -31.79650000     -69.20410000
C      -47.64150000     -32.99010000     -69.30460000
C      -47.20100000     -34.16360000     -68.54580000
C      -45.93140000     -34.10150000     -67.95930000
C      -45.20180000     -32.94280000     -67.97260000
H      -45.03410000     -30.91850000     -68.59260000
H      -48.64460000     -33.08850000     -69.72310000
H      -45.50370000     -35.08250000     -67.70740000
H      -44.15930000     -32.84570000     -67.65550000
C      -47.89290000     -35.45980000     -68.71000000
H      -48.94740000     -35.28430000     -68.84850000
H      -47.83840000     -36.13610000     -67.89480000
C      -47.52560000     -30.45700000     -69.72800000
H      -48.53410000     -30.34220000     -69.27690000
H      -46.82740000     -29.66100000     -69.41990000
S      -47.29450000     -36.40300000     -70.20790000
S      -47.98110000     -30.44640000     -71.54340000
C      -45.83660000     -35.53460000     -70.87880000
H      -45.69570000     -34.51720000     -70.47240000
H      -44.90900000     -36.09350000     -70.60980000
C      -46.27330000     -30.53210000     -72.33740000
H      -45.62480000     -29.90320000     -71.71240000
H      -46.40960000     -30.10750000     -73.34900000
C      -45.82160000     -31.99030000     -72.45260000
H      -45.92920000     -32.38810000     -71.45660000
H      -46.43110000     -32.48130000     -73.21720000
C      -45.87650000     -35.41630000     -72.40680000
H      -46.67530000     -34.75880000     -72.66020000
H      -46.03930000     -36.44110000     -72.79950000
C      -44.53600000     -34.95230000     -72.88540000
C      -43.56170000     -35.93530000     -73.16040000
C      -43.90740000     -33.70030000     -72.92430000
H      -43.80010000     -37.00160000     -73.27810000
C      -42.55280000     -33.70010000     -73.12790000
C      -44.38080000     -32.30860000     -72.86220000
C      -43.43240000     -31.39690000     -73.02250000
S      -41.92580000     -35.30120000     -73.41460000
S      -41.81800000     -32.12060000     -73.14720000
H      -43.43500000     -30.37050000     -72.78740000
