40
Properties=species:S:1:pos:R:3 #=T CELL(abcABC):=T 1.889726e+02=T 90.00000=T Traj:=T positionsangstrom=T Step:=T 0=T Bead:=T pbc="F F F"
C      -45.62050000     -31.56080000     -68.28310000
C      -46.86370000     -31.59910000     -68.93180000
C      -47.60100000     -32.83590000     -69.02810000
C      -47.00700000     -34.00190000     -68.50220000
C      -45.75980000     -33.93180000     -67.83870000
C      -45.10310000     -32.70510000     -67.70420000
H      -45.18300000     -30.60030000     -68.15640000
H      -48.62490000     -32.85610000     -69.35040000
H      -45.26040000     -34.84130000     -67.48020000
H      -44.10880000     -32.72600000     -67.28150000
C      -47.70760000     -35.31770000     -68.57070000
H      -48.72240000     -35.23080000     -68.29790000
H      -47.20000000     -36.08310000     -67.98040000
C      -47.52860000     -30.36930000     -69.51070000
H      -48.46760000     -30.21530000     -68.99140000
H      -46.94440000     -29.45470000     -69.36170000
S      -47.70920000     -36.01980000     -70.32630000
S      -47.92210000     -30.49310000     -71.28910000
C      -45.92550000     -35.54220000     -70.92060000
H      -45.59400000     -34.56820000     -70.49410000
H      -45.29020000     -36.24650000     -70.35760000
C      -46.29590000     -30.67470000     -72.14670000
H      -45.68930000     -29.91390000     -71.70830000
H      -46.56850000     -30.23780000     -73.17050000
C      -45.83300000     -32.12860000     -72.32980000
H      -45.97000000     -32.58180000     -71.34310000
H      -46.53720000     -32.64700000     -72.98260000
C      -45.70000000     -35.74920000     -72.39140000
H      -46.49900000     -35.24350000     -72.97850000
H      -45.92950000     -36.79110000     -72.64030000
C      -44.36100000     -35.26580000     -72.80450000
C      -43.38350000     -36.15340000     -73.37200000
C      -43.86710000     -33.88390000     -72.84430000
H      -43.46730000     -37.24110000     -73.42810000
C      -42.61970000     -33.84240000     -73.38510000
C      -44.39320000     -32.51040000     -72.74300000
C      -43.54580000     -31.55120000     -73.12500000
S      -41.88340000     -35.38250000     -73.89440000
S      -41.92150000     -32.19080000     -73.47990000
H      -43.74950000     -30.44920000     -73.32640000
