40
Properties=species:S:1:pos:R:3 #=T CELL(abcABC):=T 1.889726e+02=T 90.00000=T Traj:=T positionsangstrom=T Step:=T 0=T Bead:=T pbc="F F F"
C      -45.25270000     -36.21250000     -68.93770000
C      -45.66640000     -35.01380000     -68.26350000
C      -44.79810000     -33.87590000     -68.21030000
C      -43.48370000     -34.02240000     -68.84460000
C      -43.10020000     -35.25760000     -69.29660000
C      -43.97290000     -36.36830000     -69.37090000
H      -45.93390000     -37.01810000     -69.10940000
H      -44.93700000     -32.96420000     -67.69350000
H      -42.10290000     -35.37340000     -69.78970000
H      -43.61060000     -37.28120000     -69.77450000
C      -42.47970000     -32.91260000     -68.83310000
H      -41.56120000     -33.43120000     -68.66950000
H      -42.71960000     -32.29550000     -67.98940000
C      -47.08140000     -34.80560000     -67.72750000
H      -47.58430000     -35.79130000     -67.71040000
H      -47.15130000     -34.37450000     -66.77470000
S      -42.25630000     -31.83650000     -70.27930000
S      -47.95190000     -33.63500000     -68.88770000
C      -43.77550000     -30.79500000     -70.54880000
H      -44.00480000     -30.30960000     -69.64940000
H      -43.46730000     -30.03650000     -71.33390000
C      -47.43710000     -33.98420000     -70.55990000
H      -47.67060000     -34.95460000     -70.90690000
H      -46.35510000     -33.70940000     -70.72210000
C      -48.07310000     -33.00430000     -71.61770000
H      -49.17550000     -33.10200000     -71.84650000
H      -47.94630000     -31.96970000     -71.17160000
C      -45.00160000     -31.64880000     -71.04540000
H      -45.88690000     -30.95790000     -71.09510000
H      -45.12840000     -32.44600000     -70.31010000
C      -44.87440000     -32.16810000     -72.51330000
C      -43.71130000     -32.17050000     -73.25000000
C      -46.00480000     -32.74330000     -73.22120000
H      -42.86380000     -31.64370000     -72.81990000
C      -45.64010000     -33.02100000     -74.56250000
C      -47.32890000     -33.13470000     -72.98250000
C      -48.02700000     -33.58270000     -74.07550000
S      -43.90820000     -32.90160000     -74.79770000
S      -46.99250000     -33.68970000     -75.48560000
H      -49.08960000     -33.89430000     -74.11100000
