40
Properties=species:S:1:pos:R:3 #=T CELL(abcABC):=T 1.889726e+02=T 90.00000=T Traj:=T positionsangstrom=T Step:=T 0=T Bead:=T pbc="F F F"
C      -47.13810000     -33.43720000     -73.71040000
C      -46.44810000     -34.69510000     -73.92330000
C      -46.70500000     -35.74590000     -73.01500000
C      -47.53900000     -35.59290000     -71.91510000
C      -48.33980000     -34.45940000     -71.84450000
C      -48.14170000     -33.34380000     -72.74870000
H      -46.84430000     -32.55210000     -74.35720000
H      -46.06110000     -36.64340000     -73.16760000
H      -49.11360000     -34.33960000     -71.07150000
H      -48.53220000     -32.41250000     -72.45570000
C      -47.52720000     -36.65210000     -70.87170000
H      -47.48280000     -37.60610000     -71.34720000
H      -48.50540000     -36.54700000     -70.29620000
C      -45.38130000     -34.83880000     -74.94800000
H      -45.63360000     -35.66580000     -75.56990000
H      -45.36840000     -33.92340000     -75.62810000
S      -46.00540000     -36.49540000     -69.88500000
S      -43.65870000     -35.14240000     -74.33330000
C      -45.99610000     -34.66230000     -69.56000000
H      -46.12450000     -34.10960000     -70.50100000
H      -46.81850000     -34.38710000     -68.87110000
C      -43.27200000     -33.65530000     -73.32150000
H      -43.43610000     -32.74430000     -73.92250000
H      -42.14740000     -33.63690000     -73.19350000
C      -43.88980000     -33.57420000     -71.90220000
H      -44.77360000     -34.18930000     -71.75000000
H      -43.17370000     -34.15040000     -71.34400000
C      -44.63720000     -34.24630000     -68.95150000
H      -43.86070000     -34.53460000     -69.58230000
H      -44.50710000     -34.68210000     -67.97770000
C      -44.60490000     -32.74940000     -68.95470000
C      -44.77190000     -32.06440000     -67.82500000
C      -44.48700000     -31.86640000     -70.12330000
H      -44.98920000     -32.51920000     -66.85930000
C      -44.52910000     -30.51030000     -69.82850000
C      -44.07840000     -32.16490000     -71.49050000
C      -43.96250000     -30.96840000     -72.21620000
S      -44.85290000     -30.30710000     -68.08870000
S      -44.31420000     -29.48830000     -71.23180000
H      -43.88180000     -30.90910000     -73.29730000
