40
Properties=species:S:1:pos:R:3 #=T CELL(abcABC):=T 1.889726e+02=T 90.00000=T Traj:=T positionsangstrom=T Step:=T 0=T Bead:=T pbc="F F F"
C      -46.94220000     -33.67380000     -74.08370000
C      -46.28940000     -34.88890000     -74.07440000
C      -46.60820000     -35.83840000     -73.03030000
C      -47.46940000     -35.44090000     -71.98800000
C      -48.20960000     -34.20840000     -72.06480000
C      -47.93160000     -33.32640000     -73.10870000
H      -46.61530000     -33.01630000     -74.88440000
H      -46.00350000     -36.71880000     -72.81070000
H      -48.91920000     -33.94210000     -71.25540000
H      -48.49400000     -32.33350000     -73.33360000
C      -47.71190000     -36.39200000     -70.84470000
H      -47.96810000     -37.38940000     -71.13670000
H      -48.58230000     -35.93910000     -70.24820000
C      -45.31150000     -35.31310000     -75.16700000
H      -45.37970000     -36.33830000     -75.37190000
H      -45.44200000     -34.71500000     -76.06890000
S      -46.21920000     -36.50870000     -69.66400000
S      -43.60860000     -34.95890000     -74.47420000
C      -45.91430000     -34.73200000     -69.44130000
H      -46.02700000     -34.26920000     -70.43240000
H      -46.71130000     -34.31440000     -68.87940000
C      -43.70400000     -33.38150000     -73.58030000
H      -44.57320000     -32.81690000     -73.81380000
H      -42.89310000     -32.71140000     -73.87000000
C      -43.68270000     -33.46590000     -72.02060000
H      -44.37950000     -34.24780000     -71.63190000
H      -42.67490000     -33.79680000     -71.75230000
C      -44.57330000     -34.31710000     -68.97720000
H      -43.80030000     -34.66940000     -69.71780000
H      -44.12960000     -34.73190000     -67.98980000
C      -44.62970000     -32.79760000     -68.86010000
C      -44.80640000     -32.07220000     -67.70290000
C      -44.46110000     -31.94400000     -70.02020000
H      -44.90540000     -32.40120000     -66.65510000
C      -44.61490000     -30.62330000     -69.67650000
C      -44.02210000     -32.15810000     -71.40610000
C      -43.99910000     -30.91580000     -72.02020000
S      -44.89170000     -30.34310000     -67.98660000
S      -44.32260000     -29.53550000     -71.01420000
H      -43.80880000     -30.84100000     -73.13100000
