40
Properties=species:S:1:pos:R:3 #=T CELL(abcABC):=T 1.889726e+02=T 90.00000=T Traj:=T positionsangstrom=T Step:=T 0=T Bead:=T pbc="F F F"
C      -47.07860000     -33.79720000     -74.19730000
C      -46.42690000     -35.07340000     -74.05320000
C      -46.77660000     -35.92590000     -73.01080000
C      -47.75940000     -35.50620000     -72.08510000
C      -48.47330000     -34.30710000     -72.25390000
C      -48.10150000     -33.46920000     -73.30710000
H      -46.79940000     -33.08880000     -74.96500000
H      -46.18640000     -36.83510000     -72.79010000
H      -49.22500000     -34.01020000     -71.47250000
H      -48.61630000     -32.58920000     -73.33780000
C      -47.91270000     -36.28950000     -70.81240000
H      -48.18490000     -37.33850000     -71.08880000
H      -48.64990000     -35.95560000     -70.15750000
C      -45.28040000     -35.45490000     -75.00270000
H      -45.21450000     -36.53580000     -75.12460000
H      -45.36950000     -35.14780000     -76.01890000
S      -46.20030000     -36.44260000     -69.96890000
S      -43.63130000     -35.04050000     -74.28820000
C      -46.10520000     -34.65730000     -69.52450000
H      -46.47470000     -34.08340000     -70.36460000
H      -46.68280000     -34.57400000     -68.60580000
C      -43.67710000     -33.26850000     -73.64750000
H      -44.47430000     -32.70180000     -74.20630000
H      -42.72440000     -32.85360000     -73.93810000
C      -43.83620000     -33.26870000     -72.12170000
H      -44.70380000     -33.87020000     -71.84190000
H      -42.99990000     -33.88170000     -71.60850000
C      -44.68020000     -34.22750000     -69.24930000
H      -43.96430000     -34.39220000     -70.11820000
H      -44.22700000     -34.79490000     -68.39480000
C      -44.60860000     -32.77890000     -68.90780000
C      -44.90950000     -32.16840000     -67.71220000
C      -44.33910000     -31.85780000     -69.95460000
H      -45.13370000     -32.70610000     -66.85330000
C      -44.36360000     -30.51240000     -69.48930000
C      -43.96550000     -31.96280000     -71.37160000
C      -43.87070000     -30.74090000     -71.96330000
S      -44.66130000     -30.48460000     -67.76640000
S      -44.00470000     -29.43840000     -70.86290000
H      -43.70350000     -30.58090000     -73.01680000
