40
Properties=species:S:1:pos:R:3 #=T CELL(abcABC):=T 1.889726e+02=T 90.00000=T Traj:=T positionsangstrom=T Step:=T 0=T Bead:=T pbc="F F F"
C      -47.29240000     -33.93250000     -74.41140000
C      -46.39430000     -35.00300000     -74.20040000
C      -46.60320000     -35.80510000     -73.01920000
C      -47.62470000     -35.55360000     -72.13900000
C      -48.49460000     -34.40970000     -72.29460000
C      -48.22470000     -33.59770000     -73.45320000
H      -47.21960000     -33.27020000     -75.31050000
H      -45.90120000     -36.58840000     -72.68580000
H      -49.21700000     -34.17340000     -71.58960000
H      -48.75340000     -32.73420000     -73.64630000
C      -47.80850000     -36.51210000     -70.97460000
H      -47.98770000     -37.48490000     -71.46880000
H      -48.72210000     -36.26830000     -70.32990000
C      -45.24020000     -35.18660000     -75.13010000
H      -45.16580000     -36.16650000     -75.60170000
H      -45.24230000     -34.33150000     -75.83080000
S      -46.39580000     -36.59960000     -69.84580000
S      -43.58750000     -35.02170000     -74.30340000
C      -46.32540000     -34.73710000     -69.42420000
H      -46.55540000     -34.06050000     -70.25360000
H      -47.10660000     -34.35740000     -68.73160000
C      -43.82050000     -33.26970000     -73.61100000
H      -44.62830000     -32.81490000     -74.15940000
H      -42.90230000     -32.70100000     -73.79530000
C      -44.13650000     -33.25010000     -72.08430000
H      -45.16920000     -33.61180000     -71.97400000
H      -43.42010000     -33.94080000     -71.66180000
C      -44.90160000     -34.26690000     -68.77660000
H      -44.08060000     -34.77380000     -69.31090000
H      -44.70150000     -34.72370000     -67.82460000
C      -44.68110000     -32.76890000     -68.82900000
C      -44.65190000     -32.07280000     -67.66080000
C      -44.36180000     -31.90340000     -69.99910000
H      -44.94430000     -32.51870000     -66.76980000
C      -44.28580000     -30.58480000     -69.55800000
C      -44.08740000     -31.90950000     -71.42390000
C      -43.77300000     -30.69490000     -71.99990000
S      -44.49780000     -30.34690000     -67.88690000
S      -43.75900000     -29.39810000     -70.73020000
H      -43.34230000     -30.40200000     -72.90650000
