40
Properties=species:S:1:pos:R:3 #=T CELL(abcABC):=T 1.889726e+02=T 90.00000=T Traj:=T positionsangstrom=T Step:=T 0=T Bead:=T pbc="F F F"
C      -45.80010000     -36.99580000     -68.25670000
C      -45.38380000     -35.63620000     -68.15690000
C      -46.21730000     -34.58680000     -68.62010000
C      -47.57470000     -34.88070000     -69.06840000
C      -47.93280000     -36.24580000     -69.16400000
C      -47.10980000     -37.33470000     -68.72620000
H      -45.16680000     -37.79140000     -67.93820000
H      -45.85080000     -33.49440000     -68.56470000
H      -48.92500000     -36.40290000     -69.43640000
H      -47.55550000     -38.32860000     -68.70270000
C      -48.44890000     -33.80010000     -69.67840000
H      -48.50070000     -33.02160000     -68.91450000
H      -49.42740000     -34.25840000     -69.98630000
C      -43.91100000     -35.32230000     -67.68530000
H      -43.86190000     -34.60580000     -66.81240000
H      -43.59580000     -36.33210000     -67.37970000
S      -47.79000000     -33.04450000     -71.19830000
S      -42.64520000     -34.91720000     -68.99920000
C      -47.14570000     -31.31810000     -70.72080000
H      -47.75500000     -30.67390000     -71.31960000
H      -47.46010000     -31.29970000     -69.68520000
C      -43.22430000     -33.64300000     -70.20110000
H      -42.29920000     -33.27540000     -70.68510000
H      -43.66340000     -32.80940000     -69.57460000
C      -44.17530000     -34.02080000     -71.36510000
H      -44.00580000     -35.10490000     -71.57300000
H      -45.20900000     -34.00100000     -71.01690000
C      -45.72430000     -31.00640000     -70.85980000
H      -45.11580000     -31.62930000     -70.28310000
H      -45.60190000     -29.93560000     -70.51310000
C      -45.19320000     -30.91570000     -72.28490000
C      -45.58810000     -29.90070000     -73.16180000
C      -44.49320000     -31.99030000     -73.01500000
H      -46.00250000     -28.95060000     -72.86450000
C      -44.44010000     -31.71780000     -74.37890000
C      -44.08380000     -33.31730000     -72.69400000
C      -43.80300000     -34.03370000     -73.82750000
S      -44.90900000     -30.13130000     -74.76140000
S      -43.86470000     -33.06920000     -75.31050000
H      -43.53050000     -35.10720000     -73.95600000
