40
Properties=species:S:1:pos:R:3 #=T CELL(abcABC):=T 1.889726e+02=T 90.00000=T Traj:=T positionsangstrom=T Step:=T 0=T Bead:=T pbc="F F F"
C      -45.46370000     -36.12580000     -67.60950000
C      -45.27950000     -34.73400000     -67.82590000
C      -46.33350000     -34.00490000     -68.37010000
C      -47.43370000     -34.62680000     -69.01300000
C      -47.54990000     -36.02870000     -68.87660000
C      -46.62770000     -36.71630000     -68.04600000
H      -44.71970000     -36.67750000     -67.00550000
H      -46.14050000     -33.02090000     -68.59680000
H      -48.37960000     -36.55900000     -69.38370000
H      -46.76530000     -37.74280000     -67.81880000
C      -48.43330000     -33.78120000     -69.79730000
H      -48.93510000     -33.04140000     -69.10600000
H      -49.24300000     -34.40720000     -70.17500000
C      -43.93800000     -34.12060000     -67.79660000
H      -43.90670000     -33.11560000     -68.26130000
H      -43.37570000     -34.13630000     -66.85900000
S      -47.90220000     -32.95990000     -71.38080000
S      -42.77000000     -35.10390000     -69.02020000
C      -47.20830000     -31.33930000     -70.83790000
H      -47.65220000     -30.52190000     -71.40900000
H      -47.56510000     -31.17100000     -69.78640000
C      -42.89620000     -34.31880000     -70.68050000
H      -41.96270000     -34.78110000     -71.08930000
H      -42.55700000     -33.28950000     -70.51850000
C      -44.11810000     -34.48730000     -71.48700000
H      -44.34190000     -35.60400000     -71.64870000
H      -44.91680000     -34.10400000     -70.88860000
C      -45.68260000     -31.18890000     -70.92240000
H      -45.19300000     -31.99610000     -70.39230000
H      -45.33600000     -30.24740000     -70.42190000
C      -45.19700000     -31.20950000     -72.34930000
C      -45.37440000     -30.10130000     -73.11740000
C      -44.78930000     -32.40470000     -73.05090000
H      -45.65450000     -29.09850000     -72.77160000
C      -44.69340000     -32.09470000     -74.38310000
C      -44.20230000     -33.73410000     -72.83040000
C      -43.78220000     -34.28470000     -73.98890000
S      -45.00560000     -30.34040000     -74.77430000
S      -44.10740000     -33.33750000     -75.39210000
H      -43.40510000     -35.33310000     -74.10850000
