40
Properties=species:S:1:pos:R:3 #=T CELL(abcABC):=T 1.889726e+02=T 90.00000=T Traj:=T positionsangstrom=T Step:=T 0=T Bead:=T pbc="F F F"
C      -43.08170000     -32.57260000     -73.11090000
C      -42.91810000     -33.95590000     -72.96390000
C      -43.89540000     -34.81520000     -73.56380000
C      -45.03630000     -34.22400000     -74.19730000
C      -44.98080000     -32.82430000     -74.47680000
C      -44.07910000     -31.94880000     -73.87960000
H      -42.34550000     -32.01470000     -72.57450000
H      -43.66120000     -35.90960000     -73.49250000
H      -45.67100000     -32.47950000     -75.21560000
H      -44.17720000     -30.88830000     -74.11000000
C      -46.10470000     -35.13350000     -74.67730000
H      -46.11020000     -36.12140000     -74.06670000
H      -45.82360000     -35.53030000     -75.65590000
C      -41.67970000     -34.41190000     -72.17230000
H      -41.44660000     -35.48920000     -72.25160000
H      -40.73150000     -33.90330000     -72.42120000
S      -47.79760000     -34.45430000     -74.68710000
S      -41.89940000     -33.98130000     -70.39560000
C      -47.81030000     -33.44230000     -73.03980000
H      -47.26330000     -32.50480000     -73.25620000
H      -48.84500000     -33.06790000     -72.85530000
C      -43.11060000     -35.32740000     -69.84000000
H      -43.04580000     -35.33110000     -68.71630000
H      -42.83770000     -36.28460000     -70.40770000
C      -44.55530000     -34.94960000     -70.23110000
H      -44.50630000     -34.66110000     -71.25320000
H      -45.28620000     -35.77260000     -70.15050000
C      -47.29290000     -34.21720000     -71.81660000
H      -46.38160000     -34.66690000     -72.00030000
H      -47.99390000     -35.06770000     -71.71610000
C      -47.33420000     -33.33120000     -70.53780000
C      -48.37650000     -32.47740000     -70.24810000
C      -46.20540000     -33.04360000     -69.67390000
H      -49.23560000     -32.46250000     -70.93640000
C      -46.42160000     -31.97210000     -68.75120000
C      -44.95270000     -33.71170000     -69.46970000
C      -44.17180000     -33.03700000     -68.51960000
S      -48.04800000     -31.34910000     -68.88360000
S      -45.01900000     -31.58550000     -67.81620000
H      -43.28590000     -33.38910000     -68.08890000
