40
Properties=species:S:1:pos:R:3 #=T CELL(abcABC):=T 1.889726e+02=T 90.00000=T Traj:=T positionsangstrom=T Step:=T 0=T Bead:=T pbc="F F F"
C      -45.35120000     -36.09970000     -68.18580000
C      -44.91270000     -34.75910000     -68.17250000
C      -45.85320000     -33.70900000     -68.27720000
C      -47.22420000     -34.10010000     -68.41190000
C      -47.61470000     -35.47860000     -68.54650000
C      -46.64960000     -36.47190000     -68.49850000
H      -44.52780000     -36.82580000     -67.95180000
H      -45.57450000     -32.72570000     -68.27820000
H      -48.57500000     -35.59540000     -68.93850000
H      -47.02360000     -37.47540000     -68.54950000
C      -48.22710000     -33.03750000     -68.79810000
H      -48.02430000     -32.02010000     -68.49880000
H      -49.32770000     -33.39770000     -68.53660000
C      -43.50170000     -34.33060000     -67.81230000
H      -43.65620000     -33.31700000     -67.56760000
H      -43.12400000     -34.95960000     -66.99480000
S      -48.32240000     -33.01300000     -70.61720000
S      -42.21230000     -34.47830000     -69.14170000
C      -47.78540000     -31.27600000     -71.11380000
H      -48.48990000     -31.02690000     -71.90120000
H      -47.99400000     -30.62640000     -70.25890000
C      -42.99680000     -33.54360000     -70.54260000
H      -42.22950000     -33.45620000     -71.27280000
H      -43.14450000     -32.52940000     -70.17460000
C      -44.24630000     -34.14210000     -71.16480000
H      -44.26990000     -35.23830000     -71.19530000
H      -45.14820000     -33.74970000     -70.67640000
C      -46.26160000     -31.15920000     -71.41190000
H      -45.70010000     -31.72740000     -70.67970000
H      -45.95510000     -30.12710000     -71.27670000
C      -45.81510000     -31.59810000     -72.85130000
C      -46.20280000     -30.74510000     -73.85600000
C      -44.82500000     -32.58330000     -73.19860000
H      -46.90510000     -30.01230000     -73.87320000
C      -44.49290000     -32.43220000     -74.54010000
C      -44.26890000     -33.83290000     -72.62120000
C      -43.56030000     -34.53090000     -73.60790000
S      -45.37540000     -31.17160000     -75.39330000
S      -43.49810000     -33.77470000     -75.18450000
H      -42.99950000     -35.43560000     -73.46920000
