40
Properties=species:S:1:pos:R:3 #=T CELL(abcABC):=T 1.889726e+02=T 90.00000=T Traj:=T positionsangstrom=T Step:=T 0=T Bead:=T pbc="F F F"
C      -45.10350000     -36.07740000     -68.29230000
C      -44.82280000     -34.74300000     -68.08130000
C      -45.79870000     -33.77230000     -68.18630000
C      -47.15810000     -34.18120000     -68.43110000
C      -47.44450000     -35.57330000     -68.52480000
C      -46.42430000     -36.50670000     -68.44110000
H      -44.19010000     -36.74200000     -68.17690000
H      -45.62000000     -32.74320000     -68.05420000
H      -48.51130000     -35.82300000     -68.68640000
H      -46.60880000     -37.54270000     -68.61950000
C      -48.16320000     -33.07840000     -68.74580000
H      -47.80730000     -32.19120000     -68.35720000
H      -49.10480000     -33.29050000     -68.18980000
C      -43.41710000     -34.39440000     -67.77940000
H      -43.25380000     -33.41840000     -67.36790000
H      -43.03930000     -35.03760000     -66.96610000
S      -48.60730000     -32.86010000     -70.61270000
S      -42.25360000     -34.55530000     -69.21560000
C      -47.77080000     -31.33100000     -71.17450000
H      -48.31090000     -31.18130000     -72.13950000
H      -48.00490000     -30.49590000     -70.48220000
C      -43.01620000     -33.34180000     -70.38760000
H      -42.20500000     -33.07000000     -71.17320000
H      -43.38660000     -32.46260000     -69.93190000
C      -44.24010000     -34.00330000     -71.12120000
H      -44.15940000     -35.09780000     -70.97820000
H      -45.09480000     -33.69630000     -70.60010000
C      -46.26370000     -31.27880000     -71.46950000
H      -45.81900000     -32.07140000     -70.85440000
H      -45.88880000     -30.29500000     -71.15440000
C      -45.81860000     -31.50980000     -72.94640000
C      -45.98420000     -30.54420000     -73.91210000
C      -45.06940000     -32.67930000     -73.27870000
H      -46.36710000     -29.59290000     -73.83030000
C      -44.77770000     -32.63440000     -74.65340000
C      -44.25370000     -33.72680000     -72.56330000
C      -43.46410000     -34.42970000     -73.46970000
S      -45.29570000     -31.18360000     -75.47690000
S      -43.62860000     -33.85720000     -75.13220000
H      -42.82700000     -35.19110000     -73.14670000
