40
Properties=species:S:1:pos:R:3 #=T CELL(abcABC):=T 1.889726e+02=T 90.00000=T Traj:=T positionsangstrom=T Step:=T 0=T Bead:=T pbc="F F F"
C      -45.13690000     -36.09790000     -68.02610000
C      -44.78540000     -34.71110000     -67.95240000
C      -45.76970000     -33.74090000     -68.23160000
C      -47.05650000     -34.02300000     -68.63770000
C      -47.37590000     -35.31660000     -68.80740000
C      -46.46360000     -36.33690000     -68.44710000
H      -44.38770000     -36.82870000     -67.77400000
H      -45.44520000     -32.71370000     -67.96490000
H      -48.29680000     -35.54090000     -69.35630000
H      -46.69990000     -37.39500000     -68.48600000
C      -48.00990000     -32.90960000     -69.05950000
H      -47.51730000     -31.92860000     -68.74640000
H      -48.94880000     -33.04680000     -68.60140000
C      -43.36800000     -34.24260000     -67.60330000
H      -43.36680000     -33.15430000     -67.50750000
H      -43.10660000     -34.72070000     -66.69850000
S      -48.43240000     -32.82280000     -70.87160000
S      -42.22200000     -34.52040000     -69.02480000
C      -47.68670000     -31.17330000     -71.32160000
H      -48.08830000     -30.94770000     -72.33050000
H      -48.18460000     -30.41020000     -70.60740000
C      -43.09380000     -33.62300000     -70.44530000
H      -42.42480000     -33.33930000     -71.19460000
H      -43.41450000     -32.57190000     -70.07610000
C      -44.18960000     -34.37710000     -71.26840000
H      -44.05570000     -35.46140000     -71.14310000
H      -45.22000000     -34.13460000     -70.81100000
C      -46.16090000     -31.26950000     -71.29130000
H      -45.84640000     -32.09410000     -70.61540000
H      -45.65840000     -30.42400000     -70.89090000
C      -45.62270000     -31.51820000     -72.69480000
C      -46.01690000     -30.62370000     -73.67140000
C      -44.85200000     -32.70980000     -73.14660000
H      -46.73040000     -29.77440000     -73.50500000
C      -44.71030000     -32.57920000     -74.54200000
C      -44.28060000     -33.94000000     -72.66440000
C      -43.70900000     -34.69180000     -73.66530000
S      -45.55100000     -31.23340000     -75.25110000
S      -43.83170000     -33.84380000     -75.24880000
H      -43.16220000     -35.65930000     -73.49430000
