40
Properties=species:S:1:pos:R:3 #=T CELL(abcABC):=T 1.889726e+02=T 90.00000=T Traj:=T positionsangstrom=T Step:=T 0=T Bead:=T pbc="F F F"
C      -44.27940000     -31.31300000     -67.99090000
C      -45.57400000     -31.85270000     -67.97830000
C      -45.78760000     -33.24840000     -67.99530000
C      -44.64380000     -34.12870000     -67.90940000
C      -43.36970000     -33.56050000     -67.76810000
C      -43.20190000     -32.17510000     -67.81470000
H      -44.18240000     -30.20990000     -68.20300000
H      -46.77550000     -33.83980000     -67.96430000
H      -42.49040000     -34.19680000     -67.52160000
H      -42.19060000     -31.81580000     -67.80330000
C      -44.85500000     -35.58100000     -67.85960000
H      -45.44730000     -35.74730000     -66.91030000
H      -44.04540000     -36.28010000     -67.76260000
C      -46.82710000     -31.03380000     -68.10420000
H      -47.76770000     -31.53110000     -67.73140000
H      -46.76390000     -30.09540000     -67.55150000
S      -46.03410000     -36.25010000     -69.15530000
S      -47.12340000     -30.52690000     -69.89580000
C      -45.13440000     -35.43620000     -70.55930000
H      -44.81490000     -34.45560000     -70.22000000
H      -44.19920000     -36.02450000     -70.68140000
C      -46.15710000     -31.66530000     -71.11940000
H      -45.78200000     -32.46770000     -70.52070000
H      -45.29480000     -30.92970000     -71.50800000
C      -46.97810000     -32.06990000     -72.37140000
H      -47.64410000     -32.97860000     -72.18800000
H      -47.60530000     -31.22540000     -72.74180000
C      -46.04510000     -35.36420000     -71.82630000
H      -46.86360000     -34.70050000     -71.56060000
H      -46.51860000     -36.36380000     -71.85900000
C      -45.35660000     -34.98740000     -73.08490000
C      -44.56930000     -35.87290000     -73.74740000
C      -45.30990000     -33.65220000     -73.67930000
H      -44.39220000     -36.88130000     -73.49690000
C      -44.48260000     -33.61720000     -74.80030000
C      -46.02550000     -32.41030000     -73.51170000
C      -45.66040000     -31.50920000     -74.43140000
S      -43.75780000     -35.13720000     -75.21120000
S      -44.67560000     -32.14820000     -75.69560000
H      -46.37260000     -30.67220000     -74.70650000
