40
Properties=species:S:1:pos:R:3 #=T CELL(abcABC):=T 1.889726e+02=T 90.00000=T Traj:=T positionsangstrom=T Step:=T 0=T Bead:=T pbc="F F F"
C      -45.34630000     -36.11520000     -68.62140000
C      -45.05520000     -34.79340000     -68.38460000
C      -46.13800000     -33.88800000     -68.43850000
C      -47.42920000     -34.24790000     -68.82810000
C      -47.57810000     -35.54850000     -69.27140000
C      -46.53840000     -36.44470000     -69.14460000
H      -44.62350000     -36.95410000     -68.42420000
H      -45.89380000     -32.87590000     -68.15610000
H      -48.60640000     -35.95850000     -69.57880000
H      -46.73830000     -37.43620000     -69.55560000
C      -48.50520000     -33.27050000     -69.05990000
H      -48.65130000     -32.56090000     -68.22640000
H      -49.49970000     -33.70690000     -69.26370000
C      -43.65380000     -34.30470000     -68.05280000
H      -43.60920000     -33.17580000     -68.08150000
H      -43.31120000     -34.61870000     -67.03320000
S      -48.15400000     -32.22480000     -70.71140000
S      -42.34220000     -34.95070000     -69.18520000
C      -46.78490000     -31.11290000     -70.22460000
H      -46.97350000     -30.13110000     -70.70790000
H      -46.79150000     -30.91380000     -69.13030000
C      -42.60360000     -33.93060000     -70.67940000
H      -41.64110000     -33.86920000     -71.21240000
H      -42.80330000     -32.96720000     -70.20370000
C      -43.73750000     -34.55520000     -71.49780000
H      -43.51700000     -35.65470000     -71.68560000
H      -44.67440000     -34.58430000     -70.94480000
C      -45.33460000     -31.47920000     -70.67110000
H      -45.07560000     -32.53200000     -70.31280000
H      -44.67210000     -30.73670000     -70.29330000
C      -45.20580000     -31.50300000     -72.21870000
C      -45.67930000     -30.47200000     -72.96960000
C      -44.67010000     -32.60900000     -73.05300000
H      -46.17860000     -29.61920000     -72.62900000
C      -44.93040000     -32.38800000     -74.40830000
C      -44.14670000     -33.96630000     -72.85620000
C      -43.91810000     -34.65650000     -74.02550000
S      -45.66150000     -30.84650000     -74.72110000
S      -44.39020000     -33.75490000     -75.44090000
H      -43.35380000     -35.62170000     -74.03540000
