40
Properties=species:S:1:pos:R:3 #=T CELL(abcABC):=T 1.889726e+02=T 90.00000=T Traj:=T positionsangstrom=T Step:=T 0=T Bead:=T pbc="F F F"
C      -45.23300000     -36.47410000     -68.78640000
C      -44.82640000     -35.17510000     -68.35220000
C      -45.76870000     -34.20550000     -68.39290000
C      -46.98080000     -34.33470000     -69.11150000
C      -47.30670000     -35.56010000     -69.62570000
C      -46.47600000     -36.64920000     -69.38440000
H      -44.55390000     -37.31510000     -68.76810000
H      -45.46910000     -33.21670000     -68.18580000
H      -48.23840000     -35.74220000     -70.11470000
H      -46.67490000     -37.61260000     -69.85270000
C      -48.03090000     -33.30000000     -69.03760000
H      -47.92610000     -32.58220000     -68.19660000
H      -49.04640000     -33.69890000     -68.90100000
C      -43.50490000     -34.81770000     -67.85820000
H      -43.49700000     -33.93130000     -67.24520000
H      -43.17470000     -35.65150000     -67.22650000
S      -48.12290000     -32.17010000     -70.66460000
S      -42.26670000     -34.93960000     -69.17860000
C      -46.88620000     -30.89080000     -70.18980000
H      -47.26210000     -29.92780000     -70.56190000
H      -46.82950000     -30.72150000     -69.14340000
C      -42.90650000     -33.79060000     -70.57190000
H      -41.99880000     -33.72040000     -71.21440000
H      -43.14800000     -32.82090000     -70.23140000
C      -44.09180000     -34.48210000     -71.35280000
H      -43.92010000     -35.53400000     -71.39980000
H      -44.90010000     -34.33410000     -70.62470000
C      -45.50590000     -31.20600000     -70.77260000
H      -45.07260000     -32.10740000     -70.28750000
H      -44.90150000     -30.29480000     -70.56380000
C      -45.53110000     -31.38850000     -72.27150000
C      -46.01140000     -30.44780000     -73.09670000
C      -44.98460000     -32.55590000     -72.97760000
H      -46.52350000     -29.56480000     -72.80080000
C      -45.10610000     -32.36250000     -74.36210000
C      -44.30710000     -33.81430000     -72.68250000
C      -43.84610000     -34.43090000     -73.82340000
S      -45.89870000     -30.86550000     -74.81550000
S      -44.25070000     -33.57450000     -75.31210000
H      -43.17230000     -35.21790000     -74.03600000
