40
Properties=species:S:1:pos:R:3 #=T CELL(abcABC):=T 1.889726e+02=T 90.00000=T Traj:=T positionsangstrom=T Step:=T 0=T Bead:=T pbc="F F F"
C      -45.02670000     -36.32260000     -69.06910000
C      -44.76660000     -35.07920000     -68.47780000
C      -45.79300000     -34.15770000     -68.35120000
C      -47.03870000     -34.37980000     -68.86110000
C      -47.26960000     -35.53670000     -69.58670000
C      -46.20800000     -36.46170000     -69.73010000
H      -44.22930000     -37.11360000     -69.09290000
H      -45.48870000     -33.16280000     -67.95610000
H      -48.24060000     -35.64610000     -70.08750000
H      -46.33590000     -37.39750000     -70.20750000
C      -48.16570000     -33.37480000     -68.71630000
H      -47.85550000     -32.67980000     -67.90570000
H      -49.05380000     -33.92810000     -68.39890000
C      -43.34340000     -34.78830000     -67.92740000
H      -43.20380000     -33.81700000     -67.43070000
H      -43.03460000     -35.49990000     -67.17240000
S      -48.40200000     -32.42510000     -70.31040000
S      -42.05310000     -34.87780000     -69.31340000
C      -47.13540000     -31.06500000     -70.21700000
H      -47.52910000     -30.27510000     -70.81890000
H      -47.09130000     -30.70410000     -69.19610000
C      -42.49170000     -33.84390000     -70.76470000
H      -41.66550000     -33.91900000     -71.46110000
H      -42.64200000     -32.83240000     -70.46160000
C      -43.84630000     -34.24560000     -71.29810000
H      -43.80340000     -35.35540000     -71.33600000
H      -44.55630000     -33.94090000     -70.52180000
C      -45.70570000     -31.29870000     -70.76350000
H      -45.28520000     -32.32460000     -70.50600000
H      -45.00150000     -30.68180000     -70.31110000
C      -45.58110000     -31.32710000     -72.30300000
C      -46.31700000     -30.55000000     -73.13230000
C      -44.80670000     -32.38640000     -72.98170000
H      -46.91470000     -29.69950000     -72.84860000
C      -44.96800000     -32.28800000     -74.36560000
C      -44.19000000     -33.65310000     -72.65720000
C      -43.79360000     -34.30530000     -73.84900000
S      -46.10750000     -30.99110000     -74.83380000
S      -44.33070000     -33.55420000     -75.35660000
H      -43.32120000     -35.31590000     -73.83640000
