40
Properties=species:S:1:pos:R:3 #=T CELL(abcABC):=T 1.889726e+02=T 90.00000=T Traj:=T positionsangstrom=T Step:=T 0=T Bead:=T pbc="F F F"
C      -44.89100000     -36.22180000     -69.31200000
C      -44.62510000     -35.02400000     -68.56790000
C      -45.66740000     -34.15510000     -68.27970000
C      -46.98230000     -34.32620000     -68.78310000
C      -47.26570000     -35.53010000     -69.41750000
C      -46.22410000     -36.50680000     -69.68860000
H      -44.06250000     -36.96380000     -69.41100000
H      -45.40490000     -33.32160000     -67.62280000
H      -48.30910000     -35.76920000     -69.64330000
H      -46.42490000     -37.44280000     -70.29150000
C      -48.01460000     -33.31730000     -68.55070000
H      -47.92460000     -32.47210000     -67.83920000
H      -49.00970000     -33.69370000     -68.41050000
C      -43.22130000     -34.65930000     -68.15110000
H      -43.21740000     -33.61510000     -67.83410000
H      -42.91070000     -35.35370000     -67.33350000
S      -48.48130000     -32.47140000     -70.23230000
S      -41.90900000     -34.85740000     -69.32270000
C      -47.25480000     -31.08580000     -70.17560000
H      -47.75500000     -30.16300000     -70.59330000
H      -47.12090000     -30.78350000     -69.09650000
C      -42.42550000     -33.79730000     -70.77940000
H      -41.74120000     -34.05830000     -71.62600000
H      -42.20260000     -32.73430000     -70.47230000
C      -43.85250000     -34.23150000     -71.31960000
H      -43.82340000     -35.28870000     -71.37090000
H      -44.62380000     -34.04660000     -70.54480000
C      -45.90630000     -31.39700000     -70.78820000
H      -45.62830000     -32.30420000     -70.29120000
H      -45.21820000     -30.55870000     -70.43880000
C      -45.82970000     -31.57230000     -72.29740000
C      -46.60140000     -30.77300000     -73.09290000
C      -45.04610000     -32.56630000     -73.02230000
H      -47.24500000     -29.96980000     -72.65060000
C      -45.13670000     -32.36940000     -74.43780000
C      -44.20370000     -33.68720000     -72.70950000
C      -43.67380000     -34.26220000     -73.91070000
S      -46.14980000     -30.92680000     -74.77430000
S      -44.20460000     -33.45660000     -75.40360000
H      -42.89360000     -35.08860000     -73.89640000
