40
Properties=species:S:1:pos:R:3 #=T CELL(abcABC):=T 1.889726e+02=T 90.00000=T Traj:=T positionsangstrom=T Step:=T 0=T Bead:=T pbc="F F F"
C      -44.85970000     -36.25850000     -69.01000000
C      -44.58840000     -34.95690000     -68.54190000
C      -45.61900000     -33.99700000     -68.35560000
C      -46.93730000     -34.41020000     -68.66820000
C      -47.17060000     -35.60640000     -69.38240000
C      -46.19090000     -36.57390000     -69.40310000
H      -43.93610000     -36.80190000     -69.19140000
H      -45.42970000     -32.99990000     -68.02630000
H      -48.16190000     -35.74060000     -69.79210000
H      -46.47950000     -37.57580000     -69.87360000
C      -48.13660000     -33.42170000     -68.50380000
H      -47.85510000     -32.76730000     -67.64680000
H      -49.00720000     -33.98980000     -68.21910000
C      -43.18880000     -34.66260000     -68.09980000
H      -43.19720000     -33.64040000     -67.68020000
H      -42.99060000     -35.36860000     -67.31200000
S      -48.56330000     -32.51500000     -70.00460000
S      -41.90460000     -34.81890000     -69.49750000
C      -47.27250000     -31.15400000     -70.14980000
H      -47.76830000     -30.42050000     -70.72450000
H      -46.90220000     -30.84300000     -69.21040000
C      -42.53220000     -33.66100000     -70.78200000
H      -41.75020000     -33.49400000     -71.46680000
H      -42.77790000     -32.71750000     -70.27490000
C      -43.78650000     -34.28010000     -71.48320000
H      -43.55910000     -35.37680000     -71.61910000
H      -44.78050000     -34.25230000     -70.93120000
C      -46.03320000     -31.65930000     -70.81560000
H      -45.90040000     -32.60230000     -70.55000000
H      -45.20180000     -31.13410000     -70.29850000
C      -45.82900000     -31.58730000     -72.33830000
C      -46.54120000     -30.73940000     -73.15680000
C      -45.04860000     -32.53990000     -73.10180000
H      -47.24260000     -29.94670000     -72.85780000
C      -45.21340000     -32.37250000     -74.49060000
C      -44.10160000     -33.62540000     -72.77610000
C      -43.46430000     -34.01920000     -73.93130000
S      -46.25350000     -31.03160000     -74.84330000
S      -44.13450000     -33.30240000     -75.48810000
H      -42.70960000     -34.85590000     -73.98870000
