40
Properties=species:S:1:pos:R:3 #=T CELL(abcABC):=T 1.889726e+02=T 90.00000=T Traj:=T positionsangstrom=T Step:=T 0=T Bead:=T pbc="F F F"
C      -46.78140000     -33.51940000     -74.54610000
C      -45.61150000     -34.34380000     -74.61310000
C      -45.59680000     -35.49270000     -73.79990000
C      -46.66820000     -35.80200000     -72.92990000
C      -47.81500000     -35.01440000     -73.04220000
C      -47.90350000     -33.83150000     -73.82900000
H      -46.75500000     -32.69420000     -75.26140000
H      -44.67500000     -36.09120000     -73.83610000
H      -48.72880000     -35.28100000     -72.44740000
H      -48.72860000     -33.15970000     -73.94680000
C      -46.56980000     -37.01560000     -72.11160000
H      -46.48260000     -37.88270000     -72.71160000
H      -47.41850000     -37.16910000     -71.55290000
C      -44.46390000     -33.85440000     -75.48030000
H      -43.91540000     -34.68830000     -75.96970000
H      -44.89680000     -33.24800000     -76.24780000
S      -45.27720000     -36.87560000     -70.81510000
S      -43.10860000     -33.10550000     -74.45250000
C      -45.79980000     -35.37020000     -69.89620000
H      -46.19640000     -34.61070000     -70.57240000
H      -46.57310000     -35.41740000     -69.11180000
C      -44.03190000     -32.02590000     -73.24850000
H      -44.93620000     -31.63950000     -73.77290000
H      -43.37850000     -31.16540000     -73.01940000
C      -44.54620000     -32.81560000     -71.95730000
H      -45.29260000     -33.61170000     -72.12680000
H      -43.75450000     -33.40120000     -71.54190000
C      -44.49390000     -34.77420000     -69.27040000
H      -43.64620000     -34.62470000     -69.97170000
H      -44.16260000     -35.43250000     -68.49330000
C      -44.80700000     -33.40240000     -68.58950000
C      -45.01290000     -33.19680000     -67.29770000
C      -45.03060000     -32.21120000     -69.44820000
H      -44.90460000     -33.85390000     -66.42850000
C      -45.28830000     -31.12220000     -68.67950000
C      -44.95130000     -31.89530000     -70.86640000
C      -45.18720000     -30.56470000     -71.12460000
S      -45.26110000     -31.43530000     -67.01960000
S      -45.56320000     -29.67790000     -69.66120000
H      -45.35670000     -30.14270000     -72.11190000
