40
Properties=species:S:1:pos:R:3 #=T CELL(abcABC):=T 1.889726e+02=T 90.00000=T Traj:=T positionsangstrom=T Step:=T 0=T Bead:=T pbc="F F F"
C      -46.91580000     -33.76080000     -74.46990000
C      -45.64130000     -34.43950000     -74.57820000
C      -45.38570000     -35.62530000     -73.88020000
C      -46.33790000     -36.07020000     -72.99660000
C      -47.53620000     -35.38230000     -72.77900000
C      -47.78680000     -34.16330000     -73.48300000
H      -46.93510000     -32.72210000     -74.79560000
H      -44.34630000     -35.98030000     -74.00240000
H      -48.27640000     -35.63420000     -71.94530000
H      -48.67890000     -33.53260000     -73.26690000
C      -45.98350000     -37.16580000     -72.11050000
H      -45.62560000     -38.01860000     -72.63460000
H      -46.87860000     -37.55670000     -71.59070000
C      -44.51130000     -33.85000000     -75.40820000
H      -43.85840000     -34.50670000     -76.01920000
H      -44.80810000     -33.01870000     -76.02660000
S      -44.58530000     -36.66800000     -70.81960000
S      -43.08270000     -33.09900000     -74.41940000
C      -45.41770000     -35.28050000     -69.85070000
H      -45.89250000     -34.66630000     -70.68330000
H      -46.24810000     -35.66560000     -69.26420000
C      -44.01830000     -31.94520000     -73.23410000
H      -44.99660000     -31.75210000     -73.74910000
H      -43.51620000     -30.99880000     -73.13480000
C      -44.21510000     -32.55910000     -71.87620000
H      -44.72910000     -33.52920000     -71.89560000
H      -43.21260000     -32.60140000     -71.34190000
C      -44.31030000     -34.53960000     -69.10550000
H      -43.41340000     -34.57920000     -69.72290000
H      -44.06550000     -35.08340000     -68.19070000
C      -44.84540000     -33.25590000     -68.67680000
C      -45.09010000     -32.97140000     -67.34280000
C      -45.14390000     -32.13230000     -69.55460000
H      -44.86040000     -33.56080000     -66.44930000
C      -45.79260000     -31.14880000     -68.82100000
C      -44.98400000     -31.78540000     -70.90680000
C      -45.58210000     -30.60550000     -71.21370000
S      -45.81870000     -31.37810000     -67.12060000
S      -46.24310000     -29.80940000     -69.82540000
H      -45.56860000     -30.04820000     -72.16010000
