40
Properties=species:S:1:pos:R:3 #=T CELL(abcABC):=T 1.889726e+02=T 90.00000=T Traj:=T positionsangstrom=T Step:=T 0=T Bead:=T pbc="F F F"
C      -42.54430000     -31.59190000     -68.10690000
C      -43.89610000     -31.89610000     -68.15250000
C      -44.32320000     -33.24950000     -68.46650000
C      -43.42890000     -34.30420000     -68.50260000
C      -42.01840000     -34.01020000     -68.43450000
C      -41.62120000     -32.66690000     -68.16610000
H      -42.25450000     -30.57070000     -67.97360000
H      -45.44160000     -33.44580000     -68.43780000
H      -41.25670000     -34.79740000     -68.23470000
H      -40.54340000     -32.45640000     -68.05610000
C      -43.81880000     -35.77880000     -68.53070000
H      -43.96550000     -36.20640000     -67.56560000
H      -43.03570000     -36.38590000     -68.99120000
C      -44.91170000     -30.81040000     -68.09330000
H      -45.26840000     -30.69270000     -67.11540000
H      -44.51370000     -29.83210000     -68.40600000
S      -45.34770000     -36.17130000     -69.45670000
S      -46.50290000     -31.19780000     -69.02160000
C      -44.95130000     -35.84560000     -71.32990000
H      -44.26670000     -36.52310000     -71.69670000
H      -45.95710000     -36.06140000     -71.71540000
C      -46.19680000     -31.37700000     -70.82510000
H      -45.14840000     -31.64920000     -71.04340000
H      -46.35860000     -30.41050000     -71.33240000
C      -47.20960000     -32.43270000     -71.30460000
H      -47.09790000     -33.41140000     -70.79900000
H      -48.15510000     -31.92060000     -71.10890000
C      -44.49610000     -34.37610000     -71.70250000
H      -43.45060000     -34.31880000     -71.65490000
H      -44.74690000     -33.58540000     -70.93570000
C      -44.97580000     -34.03570000     -73.08260000
C      -44.25410000     -34.46180000     -74.15410000
C      -46.16220000     -33.37390000     -73.46420000
H      -43.32820000     -34.94010000     -73.92190000
C      -46.44560000     -33.51180000     -74.83530000
C      -47.18860000     -32.60350000     -72.86310000
C      -48.19320000     -32.21280000     -73.67300000
S      -45.17050000     -34.40660000     -75.64940000
S      -47.90810000     -32.68940000     -75.35630000
H      -48.98130000     -31.58240000     -73.48850000
