40
Properties=species:S:1:pos:R:3 #=T CELL(abcABC):=T 1.889726e+02=T 90.00000=T Traj:=T positionsangstrom=T Step:=T 0=T Bead:=T pbc="F F F"
C      -45.47090000     -34.42940000     -66.85320000
C      -46.10620000     -33.68830000     -67.87250000
C      -46.81890000     -34.31660000     -68.89570000
C      -47.06150000     -35.71170000     -68.86030000
C      -46.59000000     -36.37160000     -67.75370000
C      -45.69580000     -35.80900000     -66.82470000
H      -44.94580000     -34.03830000     -66.06240000
H      -47.11670000     -33.73890000     -69.78350000
H      -46.69530000     -37.43670000     -67.66430000
H      -45.20180000     -36.35340000     -66.12180000
C      -47.80060000     -36.34050000     -70.04190000
H      -48.66470000     -35.79940000     -70.28600000
H      -48.10090000     -37.35310000     -69.82630000
C      -45.77700000     -32.14090000     -67.96190000
H      -46.72100000     -31.50960000     -67.97410000
H      -45.29730000     -31.80330000     -67.03730000
S      -46.66390000     -36.53520000     -71.59100000
S      -44.81500000     -31.78040000     -69.48850000
C      -46.49180000     -34.89100000     -72.36150000
H      -47.46390000     -34.47840000     -72.67140000
H      -46.16620000     -34.20340000     -71.59290000
C      -43.56320000     -33.14220000     -69.71690000
H      -43.72050000     -33.93910000     -68.90820000
H      -42.65520000     -32.81110000     -69.36810000
C      -43.46380000     -33.63290000     -71.15670000
H      -42.42390000     -34.02960000     -71.33430000
H      -44.08200000     -34.44870000     -71.43310000
C      -45.62370000     -34.92960000     -73.59050000
H      -46.22130000     -35.34230000     -74.42300000
H      -44.68030000     -35.36360000     -73.38120000
C      -45.33480000     -33.51120000     -74.10160000
C      -45.81690000     -32.99170000     -75.26370000
C      -44.52560000     -32.51120000     -73.32900000
H      -46.35380000     -33.63450000     -75.90080000
C      -44.53810000     -31.31120000     -73.94490000
C      -43.68480000     -32.51060000     -72.14750000
C      -43.01520000     -31.32150000     -72.01930000
S      -45.40110000     -31.33010000     -75.52280000
S      -43.55140000     -30.10720000     -73.17330000
H      -42.33420000     -31.08240000     -71.25510000
