40
Properties=species:S:1:pos:R:3 #=T CELL(abcABC):=T 1.889726e+02=T 90.00000=T Traj:=T positionsangstrom=T Step:=T 0=T Bead:=T pbc="F F F"
C      -42.61250000     -31.67140000     -68.49210000
C      -43.96530000     -32.03870000     -68.45810000
C      -44.36570000     -33.38770000     -68.46340000
C      -43.41130000     -34.46260000     -68.45780000
C      -42.05120000     -34.09350000     -68.37460000
C      -41.65530000     -32.76460000     -68.49530000
H      -42.28590000     -30.56680000     -68.57720000
H      -45.38680000     -33.66920000     -68.51970000
H      -41.30790000     -34.85250000     -68.52920000
H      -40.62540000     -32.56060000     -68.63240000
C      -43.75290000     -35.91260000     -68.54130000
H      -43.84970000     -36.46630000     -67.63570000
H      -43.01440000     -36.49660000     -69.13920000
C      -44.92560000     -30.88410000     -68.19960000
H      -45.02690000     -30.76430000     -67.13210000
H      -44.52280000     -29.98370000     -68.57310000
S      -45.32850000     -36.21670000     -69.43980000
S      -46.64080000     -31.14920000     -68.91610000
C      -44.87980000     -35.93940000     -71.24760000
H      -44.06990000     -36.55720000     -71.50070000
H      -45.70810000     -36.22900000     -71.80060000
C      -46.41320000     -31.27490000     -70.74180000
H      -45.34940000     -31.48160000     -71.03900000
H      -46.58250000     -30.21220000     -71.04510000
C      -47.36730000     -32.38880000     -71.30490000
H      -47.22930000     -33.41840000     -70.93420000
H      -48.38650000     -32.23890000     -70.94250000
C      -44.56760000     -34.47440000     -71.57880000
H      -43.44720000     -34.35250000     -71.55250000
H      -45.06810000     -33.75050000     -71.01330000
C      -45.01870000     -34.15350000     -72.99830000
C      -44.31280000     -34.66490000     -74.07360000
C      -46.19710000     -33.38480000     -73.39650000
H      -43.47050000     -35.31170000     -73.99530000
C      -46.36040000     -33.44780000     -74.75400000
C      -47.19210000     -32.50910000     -72.76610000
C      -48.02850000     -31.89600000     -73.68410000
S      -45.10890000     -34.27660000     -75.61130000
S      -47.66790000     -32.47250000     -75.33920000
H      -49.00300000     -31.37040000     -73.50570000
