40
Properties=species:S:1:pos:R:3 #=T CELL(abcABC):=T 1.889726e+02=T 90.00000=T Traj:=T positionsangstrom=T Step:=T 0=T Bead:=T pbc="F F F"
C      -47.95920000     -30.52580000     -71.76160000
C      -47.20180000     -30.70450000     -70.61230000
C      -47.54270000     -31.78700000     -69.78620000
C      -48.48990000     -32.73500000     -70.19610000
C      -49.18590000     -32.54570000     -71.40700000
C      -48.90560000     -31.47170000     -72.21390000
H      -47.71110000     -29.67250000     -72.34510000
H      -47.04080000     -31.95870000     -68.85090000
H      -49.91390000     -33.21810000     -71.76030000
H      -49.24500000     -31.39220000     -73.24940000
C      -48.85980000     -33.81480000     -69.22340000
H      -49.45280000     -34.60490000     -69.60620000
H      -49.29490000     -33.37080000     -68.34100000
C      -46.03510000     -29.73530000     -70.30070000
H      -46.42350000     -28.68600000     -70.33750000
H      -45.58050000     -29.95550000     -69.30790000
S      -47.32560000     -34.48760000     -68.41600000
S      -44.74790000     -29.72400000     -71.55090000
C      -46.37420000     -35.23480000     -69.89390000
H      -45.42330000     -35.62810000     -69.43860000
H      -46.95080000     -36.08830000     -70.09710000
C      -44.17350000     -31.42000000     -72.02550000
H      -43.36040000     -31.15070000     -72.74470000
H      -44.92920000     -32.04960000     -72.50340000
C      -43.56170000     -32.30660000     -70.79590000
H      -42.78200000     -31.70470000     -70.29200000
H      -44.34220000     -32.61090000     -70.13330000
C      -46.07010000     -34.40180000     -71.17270000
H      -45.70520000     -33.43220000     -70.80930000
H      -46.95350000     -34.12410000     -71.77250000
C      -44.98630000     -35.06820000     -71.90850000
C      -45.20450000     -36.25260000     -72.59340000
C      -43.60410000     -34.65080000     -71.90630000
H      -46.15120000     -36.61900000     -72.93290000
C      -42.78690000     -35.55400000     -72.54120000
C      -42.88380000     -33.51600000     -71.40070000
C      -41.59680000     -33.52960000     -71.78670000
S      -43.74320000     -36.85590000     -73.35340000
S      -41.18580000     -34.92890000     -72.80400000
H      -40.82440000     -32.95240000     -71.43260000
