40
Properties=species:S:1:pos:R:3 #=T CELL(abcABC):=T 1.889726e+02=T 90.00000=T Traj:=T positionsangstrom=T Step:=T 0=T Bead:=T pbc="F F F"
C      -47.81970000     -30.55120000     -71.94460000
C      -47.15210000     -30.66170000     -70.71750000
C      -47.62660000     -31.68760000     -69.83960000
C      -48.60390000     -32.56720000     -70.25340000
C      -49.37400000     -32.36030000     -71.34430000
C      -48.97080000     -31.28520000     -72.19310000
H      -47.47020000     -29.80350000     -72.67550000
H      -47.00620000     -31.92040000     -68.94820000
H      -50.18720000     -32.94910000     -71.55590000
H      -49.49620000     -31.18510000     -73.07180000
C      -48.88220000     -33.77990000     -69.44340000
H      -49.25750000     -34.58270000     -70.21170000
H      -49.73280000     -33.72470000     -68.78410000
C      -45.94760000     -29.93030000     -70.22040000
H      -46.15280000     -28.90160000     -69.93350000
H      -45.66630000     -30.48650000     -69.35090000
S      -47.50600000     -34.51850000     -68.49640000
S      -44.52990000     -29.70310000     -71.42680000
C      -46.52190000     -35.51650000     -69.75420000
H      -45.71440000     -35.98460000     -69.21340000
H      -47.30790000     -36.23780000     -70.11390000
C      -44.13390000     -31.45100000     -71.74240000
H      -43.57220000     -31.38430000     -72.71220000
H      -45.00110000     -32.01530000     -72.11880000
C      -43.31620000     -32.21640000     -70.71600000
H      -42.42510000     -31.65720000     -70.37620000
H      -43.89130000     -32.31020000     -69.82360000
C      -46.11300000     -34.63380000     -70.93450000
H      -45.69940000     -33.74790000     -70.43190000
H      -47.04600000     -34.42100000     -71.47190000
C      -45.02360000     -35.07180000     -71.87810000
C      -45.20360000     -36.32070000     -72.54800000
C      -43.63270000     -34.55560000     -72.02480000
H      -46.10740000     -36.96550000     -72.65600000
C      -42.86690000     -35.38990000     -72.81710000
C      -42.79960000     -33.46320000     -71.42750000
C      -41.48720000     -33.55410000     -71.83380000
S      -43.74610000     -36.77660000     -73.41210000
S      -41.19180000     -35.03020000     -72.77790000
H      -40.62640000     -32.99540000     -71.58360000
