40
Properties=species:S:1:pos:R:3 #=T CELL(abcABC):=T 1.889726e+02=T 90.00000=T Traj:=T positionsangstrom=T Step:=T 0=T Bead:=T pbc="F F F"
C      -47.92000000     -29.62450000     -71.00640000
C      -47.08640000     -30.46200000     -70.26170000
C      -47.46230000     -31.78130000     -69.97260000
C      -48.53440000     -32.41930000     -70.59020000
C      -49.31000000     -31.57800000     -71.44070000
C      -49.09230000     -30.21140000     -71.53280000
H      -47.62210000     -28.58830000     -71.12890000
H      -46.75650000     -32.34710000     -69.39210000
H      -50.14560000     -31.93430000     -72.05770000
H      -49.74170000     -29.53680000     -72.12500000
C      -49.03140000     -33.81580000     -70.45850000
H      -48.92710000     -34.33010000     -71.45410000
H      -50.09870000     -33.82980000     -70.12950000
C      -45.88960000     -30.06280000     -69.48670000
H      -46.11200000     -29.17510000     -68.97910000
H      -45.64700000     -30.81820000     -68.79580000
S      -48.15060000     -35.02440000     -69.44100000
S      -44.40980000     -29.65770000     -70.55530000
C      -46.89900000     -35.82250000     -70.49960000
H      -46.65210000     -36.76950000     -70.12600000
H      -47.42940000     -36.00010000     -71.44820000
C      -44.11180000     -31.12670000     -71.66100000
H      -43.33630000     -30.80940000     -72.40120000
H      -44.95740000     -31.39760000     -72.19690000
C      -43.60750000     -32.39000000     -70.87170000
H      -42.79430000     -32.27130000     -70.12260000
H      -44.37020000     -32.83430000     -70.29610000
C      -45.66780000     -34.95560000     -70.55380000
H      -45.36490000     -34.84820000     -69.52900000
H      -45.93730000     -33.98780000     -70.92240000
C      -44.57540000     -35.51630000     -71.42680000
C      -44.57680000     -36.84350000     -71.82800000
C      -43.51470000     -34.76990000     -72.01440000
H      -45.33650000     -37.50330000     -71.68610000
C      -42.72940000     -35.53930000     -72.85510000
C      -43.01620000     -33.46450000     -71.80900000
C      -41.89730000     -33.24870000     -72.57960000
S      -43.21990000     -37.18910000     -72.93250000
S      -41.39100000     -34.73350000     -73.46660000
H      -41.44160000     -32.21600000     -72.61300000
