40
Properties=species:S:1:pos:R:3 #=T CELL(abcABC):=T 1.889726e+02=T 90.00000=T Traj:=T positionsangstrom=T Step:=T 0=T Bead:=T pbc="F F F"
C      -47.75880000     -29.67790000     -70.62490000
C      -46.99180000     -30.70570000     -69.98480000
C      -47.46530000     -32.01410000     -70.03310000
C      -48.68460000     -32.29760000     -70.71900000
C      -49.54400000     -31.27460000     -71.04980000
C      -49.05320000     -29.95710000     -71.05670000
H      -47.46430000     -28.63700000     -70.62310000
H      -47.08000000     -32.88060000     -69.51650000
H      -50.51850000     -31.41510000     -71.56460000
H      -49.69050000     -29.14160000     -71.42350000
C      -49.15380000     -33.74210000     -70.94230000
H      -48.98320000     -34.16090000     -71.89230000
H      -50.26470000     -33.75470000     -70.94090000
C      -45.61510000     -30.41250000     -69.22410000
H      -45.83070000     -29.70010000     -68.37720000
H      -45.23020000     -31.23260000     -68.67590000
S      -48.39130000     -35.05930000     -69.78990000
S      -44.37610000     -29.66130000     -70.32380000
C      -46.99130000     -35.81060000     -70.90420000
H      -46.96910000     -36.85450000     -70.73710000
H      -47.29990000     -35.57660000     -71.96610000
C      -44.15470000     -31.22280000     -71.47540000
H      -43.57900000     -30.86650000     -72.41890000
H      -45.16630000     -31.49550000     -71.76820000
C      -43.41960000     -32.40400000     -70.76590000
H      -42.46300000     -32.07190000     -70.24800000
H      -43.86670000     -32.80860000     -69.95530000
C      -45.69210000     -35.08370000     -70.62100000
H      -45.46450000     -35.11900000     -69.53870000
H      -45.73880000     -33.98760000     -70.80740000
C      -44.66010000     -35.53040000     -71.61570000
C      -44.59970000     -36.85470000     -72.04710000
C      -43.48450000     -34.77040000     -71.99120000
H      -45.36000000     -37.63530000     -72.01500000
C      -42.61480000     -35.56600000     -72.84120000
C      -42.94980000     -33.43200000     -71.77720000
C      -41.79580000     -33.25310000     -72.49270000
S      -43.22660000     -37.13180000     -73.13780000
S      -41.30260000     -34.59440000     -73.41190000
H      -41.21010000     -32.38870000     -72.53630000
