40
Properties=species:S:1:pos:R:3 #=T CELL(abcABC):=T 1.889726e+02=T 90.00000=T Traj:=T positionsangstrom=T Step:=T 0=T Bead:=T pbc="F F F"
C      -47.90330000     -29.67770000     -70.54580000
C      -47.12040000     -30.64140000     -69.91450000
C      -47.59560000     -31.99310000     -70.00480000
C      -48.78870000     -32.34620000     -70.64430000
C      -49.64820000     -31.27690000     -71.09570000
C      -49.22020000     -29.97820000     -71.03550000
H      -47.53850000     -28.66850000     -70.70180000
H      -46.94690000     -32.75880000     -69.55710000
H      -50.66330000     -31.49650000     -71.38110000
H      -49.90300000     -29.17250000     -71.35380000
C      -49.16550000     -33.77330000     -70.74660000
H      -49.16450000     -34.14470000     -71.82120000
H      -50.22580000     -33.84880000     -70.34520000
C      -45.85380000     -30.40860000     -69.19740000
H      -45.88470000     -29.59440000     -68.41370000
H      -45.47200000     -31.33020000     -68.74940000
S      -48.26180000     -34.97940000     -69.73810000
S      -44.39180000     -29.92840000     -70.31680000
C      -47.03970000     -35.63360000     -70.85370000
H      -46.97270000     -36.72660000     -70.64650000
H      -47.42350000     -35.60150000     -71.85090000
C      -44.02540000     -31.30660000     -71.45140000
H      -43.40720000     -30.97380000     -72.28650000
H      -44.98120000     -31.54050000     -71.85010000
C      -43.44260000     -32.57020000     -70.75730000
H      -42.65330000     -32.12880000     -70.16780000
H      -44.21660000     -32.97710000     -70.08660000
C      -45.59680000     -35.05680000     -70.68840000
H      -45.38730000     -35.24140000     -69.65840000
H      -45.75690000     -34.01900000     -70.75760000
C      -44.55530000     -35.51630000     -71.62980000
C      -44.50080000     -36.80600000     -72.15820000
C      -43.46480000     -34.72000000     -72.08390000
H      -45.26500000     -37.56670000     -72.13310000
C      -42.64420000     -35.42150000     -72.98260000
C      -42.86000000     -33.50400000     -71.74640000
C      -41.66930000     -33.21150000     -72.35210000
S      -43.20930000     -37.04770000     -73.28940000
S      -41.23730000     -34.54030000     -73.45660000
H      -41.01610000     -32.37070000     -72.18420000
