40
Properties=species:S:1:pos:R:3 #=T CELL(abcABC):=T 1.889726e+02=T 90.00000=T Traj:=T positionsangstrom=T Step:=T 0=T Bead:=T pbc="F F F"
C      -45.40430000     -36.41860000     -69.33540000
C      -45.76080000     -35.25690000     -68.63210000
C      -44.86690000     -34.19130000     -68.36810000
C      -43.57450000     -34.33420000     -68.96600000
C      -43.27790000     -35.42960000     -69.73720000
C      -44.14620000     -36.46490000     -69.85790000
H      -46.03720000     -37.25640000     -69.32090000
H      -45.20380000     -33.34620000     -67.82400000
H      -42.26920000     -35.50120000     -70.23850000
H      -43.89210000     -37.39960000     -70.36150000
C      -42.70520000     -33.20970000     -68.62910000
H      -41.67600000     -33.54980000     -68.38810000
H      -42.99660000     -32.56910000     -67.78350000
C      -47.17510000     -35.25260000     -68.12110000
H      -47.67250000     -36.22330000     -68.16090000
H      -47.17800000     -34.76310000     -67.14130000
S      -42.48400000     -31.87330000     -69.93910000
S      -48.29660000     -34.04180000     -69.12550000
C      -44.19830000     -30.97060000     -69.88840000
H      -44.48410000     -30.97800000     -68.84260000
H      -43.85310000     -29.93910000     -70.26610000
C      -47.69410000     -34.22230000     -70.89150000
H      -47.89030000     -35.26240000     -71.18180000
H      -46.64520000     -34.29310000     -70.85790000
C      -48.22460000     -33.15590000     -71.91030000
H      -49.21870000     -33.44860000     -72.31820000
H      -48.27880000     -32.19640000     -71.40590000
C      -45.29160000     -31.67310000     -70.75960000
H      -46.19050000     -31.09690000     -70.63960000
H      -45.58700000     -32.59460000     -70.27370000
C      -44.95030000     -31.81980000     -72.20370000
C      -43.77150000     -31.46540000     -72.77830000
C      -45.86640000     -32.48080000     -73.13880000
H      -42.87690000     -30.92100000     -72.33100000
C      -45.22550000     -32.74010000     -74.36450000
C      -47.17620000     -33.07310000     -73.07900000
C      -47.53030000     -33.54170000     -74.32850000
S      -43.58130000     -32.14860000     -74.43220000
S      -46.22140000     -33.50940000     -75.51760000
H      -48.48390000     -34.11760000     -74.56430000
