40
Properties=species:S:1:pos:R:3 #=T CELL(abcABC):=T 1.889726e+02=T 90.00000=T Traj:=T positionsangstrom=T Step:=T 0=T Bead:=T pbc="F F F"
C      -44.01330000     -36.24470000     -69.48860000
C      -44.20480000     -35.13220000     -68.72160000
C      -45.46400000     -34.51510000     -68.47400000
C      -46.68080000     -35.00470000     -69.03560000
C      -46.46230000     -36.14050000     -69.83460000
C      -45.22570000     -36.69770000     -70.11460000
H      -42.97990000     -36.53340000     -69.72910000
H      -45.47660000     -33.71310000     -67.77250000
H      -47.38210000     -36.64380000     -70.33180000
H      -45.27570000     -37.52420000     -70.77110000
C      -48.02380000     -34.30210000     -68.72550000
H      -47.84080000     -33.21440000     -68.46900000
H      -48.50140000     -34.79050000     -67.86460000
C      -43.00670000     -34.59600000     -68.00810000
H      -43.08520000     -34.44700000     -66.95320000
H      -42.11380000     -35.21470000     -68.20320000
S      -49.17610000     -34.48700000     -70.11230000
S      -42.62810000     -32.81050000     -68.50730000
C      -48.57220000     -33.20010000     -71.23990000
H      -49.00850000     -33.36240000     -72.20740000
H      -48.80750000     -32.24050000     -70.80640000
C      -42.39360000     -33.03830000     -70.29410000
H      -41.77260000     -33.93300000     -70.43390000
H      -41.78820000     -32.22160000     -70.70910000
C      -43.71150000     -33.13500000     -71.02360000
H      -44.07300000     -34.14040000     -70.87920000
H      -44.35780000     -32.35860000     -70.53950000
C      -47.02630000     -33.31990000     -71.50500000
H      -46.77200000     -34.35830000     -71.67400000
H      -46.51980000     -32.87540000     -70.65580000
C      -46.53620000     -32.60390000     -72.80010000
C      -47.27380000     -32.01250000     -73.76530000
C      -45.09450000     -32.45940000     -73.08490000
H      -48.27900000     -31.99190000     -73.89750000
C      -44.85970000     -31.88820000     -74.33860000
C      -43.81660000     -32.67700000     -72.45770000
C      -42.78830000     -32.15260000     -73.18960000
S      -46.31840000     -31.20810000     -75.09680000
S      -43.23840000     -31.58320000     -74.78500000
H      -41.75010000     -32.37060000     -73.07660000
