40
Properties=species:S:1:pos:R:3 #=T CELL(abcABC):=T 1.889726e+02=T 90.00000=T Traj:=T positionsangstrom=T Step:=T 0=T Bead:=T pbc="F F F"
C      -44.08230000     -36.23170000     -69.14380000
C      -44.29770000     -35.09410000     -68.38190000
C      -45.63450000     -34.54100000     -68.25070000
C      -46.71150000     -35.04280000     -68.94720000
C      -46.48310000     -36.14560000     -69.81450000
C      -45.20450000     -36.69940000     -69.85970000
H      -43.09070000     -36.62470000     -69.29410000
H      -45.70990000     -33.65140000     -67.63630000
H      -47.25620000     -36.47960000     -70.40100000
H      -44.92690000     -37.52030000     -70.56870000
C      -48.11830000     -34.45760000     -68.68800000
H      -47.99800000     -33.41560000     -68.37230000
H      -48.66810000     -35.00850000     -67.84990000
C      -43.12220000     -34.46620000     -67.65880000
H      -43.38230000     -34.09820000     -66.63670000
H      -42.31680000     -35.16350000     -67.46840000
S      -49.22120000     -34.52720000     -70.20470000
S      -42.32760000     -33.00770000     -68.58680000
C      -48.65560000     -33.06900000     -71.31290000
H      -49.27080000     -33.00690000     -72.23800000
H      -48.74730000     -32.11610000     -70.73450000
C      -42.36570000     -33.30320000     -70.36550000
H      -41.93610000     -34.25030000     -70.55990000
H      -41.66110000     -32.51990000     -70.66330000
C      -43.77830000     -33.13630000     -71.00010000
H      -44.27980000     -34.14280000     -70.93320000
H      -44.42930000     -32.59190000     -70.37640000
C      -47.15740000     -33.31310000     -71.76450000
H      -46.95750000     -34.39930000     -71.96000000
H      -46.46730000     -33.14890000     -70.95510000
C      -46.48860000     -32.57140000     -72.94830000
C      -47.23650000     -32.07850000     -74.00100000
C      -45.09550000     -32.28830000     -73.15250000
H      -48.29140000     -32.09380000     -74.11790000
C      -44.86390000     -31.72280000     -74.44890000
C      -43.84440000     -32.47790000     -72.41690000
C      -42.77020000     -31.97820000     -73.12030000
S      -46.32650000     -31.34480000     -75.30930000
S      -43.16110000     -31.39030000     -74.75430000
H      -41.71030000     -31.93070000     -72.79400000
