40
Properties=species:S:1:pos:R:3 #=T CELL(abcABC):=T 1.889726e+02=T 90.00000=T Traj:=T positionsangstrom=T Step:=T 0=T Bead:=T pbc="F F F"
C      -44.15390000     -36.26000000     -69.18490000
C      -44.31210000     -35.05590000     -68.36240000
C      -45.59290000     -34.47020000     -68.34930000
C      -46.69480000     -35.03050000     -69.02540000
C      -46.54480000     -36.26190000     -69.72820000
C      -45.27340000     -36.84430000     -69.78490000
H      -43.21110000     -36.71450000     -69.34670000
H      -45.79810000     -33.62810000     -67.63520000
H      -47.40660000     -36.66320000     -70.14450000
H      -45.10700000     -37.90090000     -69.99640000
C      -48.00250000     -34.32720000     -68.85160000
H      -47.87820000     -33.24540000     -68.57780000
H      -48.50100000     -34.71680000     -67.99720000
C      -43.18430000     -34.49810000     -67.62700000
H      -43.57140000     -33.96630000     -66.75380000
H      -42.40150000     -35.20640000     -67.34790000
S      -49.11910000     -34.32540000     -70.32640000
S      -42.36160000     -33.11730000     -68.55300000
C      -48.44260000     -33.07850000     -71.48830000
H      -49.01080000     -33.13710000     -72.42620000
H      -48.50170000     -32.05810000     -71.09620000
C      -42.47920000     -33.33190000     -70.37030000
H      -42.21990000     -34.37850000     -70.61280000
H      -41.68890000     -32.72910000     -70.91250000
C      -43.86830000     -32.99340000     -70.91300000
H      -44.48640000     -33.86070000     -70.79810000
H      -44.27900000     -32.14430000     -70.29900000
C      -46.94510000     -33.37870000     -71.78460000
H      -46.86510000     -34.42880000     -71.95700000
H      -46.35650000     -33.17240000     -70.86370000
C      -46.44060000     -32.63470000     -72.93790000
C      -47.25870000     -32.11600000     -73.93160000
C      -45.09290000     -32.34410000     -73.15340000
H      -48.34370000     -32.17190000     -73.86790000
C      -44.92220000     -31.62970000     -74.32930000
C      -43.83720000     -32.57140000     -72.41260000
C      -42.78940000     -32.00260000     -73.11600000
S      -46.32650000     -31.48930000     -75.29390000
S      -43.24950000     -31.26090000     -74.65650000
H      -41.72420000     -31.96190000     -72.83880000
