40
Properties=species:S:1:pos:R:3 #=T CELL(abcABC):=T 1.889726e+02=T 90.00000=T Traj:=T positionsangstrom=T Step:=T 0=T Bead:=T pbc="F F F"
C      -44.65560000     -36.63010000     -69.09340000
C      -44.49240000     -35.31120000     -68.69000000
C      -45.60680000     -34.45400000     -68.65830000
C      -46.83430000     -34.97450000     -69.01600000
C      -46.99500000     -36.26120000     -69.42220000
C      -45.94150000     -37.17280000     -69.48990000
H      -43.85080000     -37.28580000     -68.89880000
H      -45.37110000     -33.41220000     -68.45850000
H      -47.99170000     -36.66720000     -69.77830000
H      -46.11620000     -38.21660000     -69.71760000
C      -48.06380000     -34.13820000     -68.95470000
H      -47.66430000     -33.16410000     -68.67930000
H      -48.63690000     -34.45980000     -68.04810000
C      -43.10360000     -34.93650000     -68.23650000
H      -42.90590000     -35.31890000     -67.26220000
H      -42.36780000     -35.51420000     -68.79260000
S      -49.14030000     -34.20070000     -70.48010000
S      -42.76070000     -33.10560000     -68.32940000
C      -48.50080000     -32.92300000     -71.64920000
H      -49.16340000     -32.92430000     -72.55320000
H      -48.44800000     -31.82000000     -71.32350000
C      -42.55140000     -32.86200000     -70.16830000
H      -41.64040000     -33.37520000     -70.55830000
H      -42.31110000     -31.78450000     -70.22580000
C      -43.78080000     -33.16170000     -70.93560000
H      -43.89710000     -34.25890000     -71.10320000
H      -44.61070000     -32.77940000     -70.33020000
C      -46.97770000     -33.24490000     -71.85440000
H      -46.87360000     -34.35300000     -71.92160000
H      -46.38770000     -32.89330000     -70.98560000
C      -46.32670000     -32.59180000     -73.00980000
C      -47.01610000     -32.25920000     -74.15890000
C      -44.91570000     -32.31520000     -73.15980000
H      -48.04280000     -32.37140000     -74.35610000
C      -44.56940000     -31.73030000     -74.32560000
C      -43.79800000     -32.47770000     -72.23760000
C      -42.63140000     -31.97110000     -72.81310000
S      -45.93910000     -31.44140000     -75.40050000
S      -42.85140000     -31.20630000     -74.36480000
H      -41.65490000     -32.10630000     -72.36020000
