40
Properties=species:S:1:pos:R:3 #=T CELL(abcABC):=T 1.889726e+02=T 90.00000=T Traj:=T positionsangstrom=T Step:=T 0=T Bead:=T pbc="F F F"
C      -45.58990000     -31.74720000     -68.12580000
C      -45.77430000     -33.14480000     -67.99840000
C      -44.76990000     -34.05570000     -68.27940000
C      -43.52030000     -33.57050000     -68.64050000
C      -43.25450000     -32.23280000     -68.75710000
C      -44.28020000     -31.27710000     -68.53110000
H      -46.46020000     -31.05850000     -68.02560000
H      -44.90810000     -35.12230000     -68.21200000
H      -42.28130000     -31.90300000     -69.10840000
H      -43.99370000     -30.20620000     -68.65100000
C      -42.42150000     -34.60350000     -68.85040000
H      -42.19290000     -35.15780000     -67.87660000
H      -41.51850000     -33.98740000     -69.11990000
C      -47.05720000     -33.70820000     -67.64000000
H      -46.94450000     -34.63280000     -67.02170000
H      -47.73530000     -33.02620000     -67.18840000
S      -42.81200000     -35.93710000     -70.11180000
S      -47.88960000     -34.49790000     -69.12460000
C      -43.87230000     -35.42250000     -71.48530000
H      -43.82960000     -36.23710000     -72.23060000
H      -44.90670000     -35.33090000     -71.13290000
C      -48.13250000     -33.31060000     -70.44970000
H      -48.53620000     -32.39040000     -70.05360000
H      -48.82460000     -33.75580000     -71.17740000
C      -46.78420000     -32.99100000     -71.03760000
H      -46.51460000     -32.00840000     -70.66030000
H      -46.04580000     -33.72530000     -70.67980000
C      -43.51220000     -34.07040000     -72.06310000
H      -42.40710000     -34.05100000     -72.14450000
H      -43.65080000     -33.36280000     -71.19680000
C      -44.13050000     -33.42840000     -73.16000000
C      -43.42160000     -33.13920000     -74.25340000
C      -45.56470000     -33.06090000     -73.38090000
H      -42.32230000     -33.26080000     -74.28220000
C      -45.78960000     -32.52320000     -74.67520000
C      -46.79230000     -32.86430000     -72.52430000
C      -47.86940000     -32.39460000     -73.23010000
S      -44.27090000     -32.34590000     -75.61220000
S      -47.49000000     -31.97690000     -74.89130000
H      -48.84840000     -32.10970000     -72.78600000
