40
Properties=species:S:1:pos:R:3 #=T CELL(abcABC):=T 1.889726e+02=T 90.00000=T Traj:=T positionsangstrom=T Step:=T 0=T Bead:=T pbc="F F F"
C      -47.95080000     -31.87200000     -71.45240000
C      -47.56090000     -31.69440000     -70.09250000
C      -47.56250000     -32.82330000     -69.25190000
C      -47.92730000     -34.09940000     -69.81440000
C      -48.35790000     -34.20470000     -71.12670000
C      -48.43200000     -33.10080000     -71.94260000
H      -48.10970000     -31.08520000     -72.13090000
H      -47.37810000     -32.78130000     -68.20070000
H      -48.69840000     -35.21810000     -71.47550000
H      -48.81910000     -33.11080000     -72.96800000
C      -47.98410000     -35.32870000     -68.96360000
H      -48.73430000     -36.03630000     -69.32860000
H      -48.31820000     -34.89500000     -68.00160000
C      -47.26060000     -30.25510000     -69.62170000
H      -47.74700000     -29.57510000     -70.31030000
H      -47.80090000     -30.02130000     -68.69280000
S      -46.36950000     -36.16100000     -68.51200000
S      -45.48980000     -29.98560000     -69.32960000
C      -45.53560000     -36.12110000     -70.14420000
H      -44.87670000     -36.93150000     -70.12940000
H      -46.35170000     -36.31170000     -70.81270000
C      -44.74790000     -30.37130000     -71.02500000
H      -44.11110000     -29.63310000     -71.39700000
H      -45.52910000     -30.57630000     -71.66320000
C      -43.91920000     -31.62240000     -70.87840000
H      -43.03130000     -31.23840000     -70.29230000
H      -44.37030000     -32.33080000     -70.14510000
C      -44.83390000     -34.82780000     -70.44360000
H      -43.98080000     -34.69730000     -69.75220000
H      -45.33250000     -33.90450000     -70.35540000
C      -44.28930000     -34.75910000     -71.82700000
C      -44.21810000     -35.92100000     -72.68510000
C      -43.59230000     -33.68750000     -72.38980000
H      -44.57860000     -36.87770000     -72.43880000
C      -43.11510000     -34.03200000     -73.65840000
C      -43.59550000     -32.23070000     -72.19710000
C      -42.91560000     -31.59220000     -73.24960000
S      -43.34460000     -35.66760000     -74.13000000
S      -42.45980000     -32.74310000     -74.57740000
H      -42.62850000     -30.58250000     -73.42710000
