40
Properties=species:S:1:pos:R:3 #=T CELL(abcABC):=T 1.889726e+02=T 90.00000=T Traj:=T positionsangstrom=T Step:=T 0=T Bead:=T pbc="F F F"
C      -47.88580000     -32.10210000     -71.52940000
C      -47.68040000     -31.80420000     -70.18650000
C      -47.71590000     -32.88720000     -69.24340000
C      -47.95850000     -34.19150000     -69.64060000
C      -48.27770000     -34.48780000     -70.98130000
C      -48.15430000     -33.44060000     -71.92590000
H      -47.91710000     -31.32470000     -72.29160000
H      -47.54590000     -32.67460000     -68.18610000
H      -48.74220000     -35.47370000     -71.25160000
H      -48.31840000     -33.66320000     -72.95360000
C      -47.98510000     -35.24300000     -68.58440000
H      -48.64850000     -36.11370000     -68.93980000
H      -48.22360000     -34.76370000     -67.64210000
C      -47.41380000     -30.43600000     -69.63200000
H      -47.72330000     -29.63610000     -70.34660000
H      -47.89710000     -30.12510000     -68.66840000
S      -46.29810000     -35.99850000     -68.36420000
S      -45.52140000     -30.09160000     -69.33380000
C      -45.68420000     -36.08880000     -70.14550000
H      -45.06060000     -37.02610000     -70.14080000
H      -46.55780000     -36.15790000     -70.89090000
C      -44.75590000     -30.48620000     -70.89110000
H      -44.26570000     -29.53940000     -71.25050000
H      -45.59770000     -30.58500000     -71.56920000
C      -43.84930000     -31.66800000     -70.81090000
H      -42.90150000     -31.42630000     -70.29410000
H      -44.24710000     -32.52210000     -70.23130000
C      -44.85530000     -34.79850000     -70.55740000
H      -44.02480000     -34.60920000     -69.84080000
H      -45.57800000     -34.00780000     -70.33550000
C      -44.21640000     -34.80500000     -71.89760000
C      -44.10070000     -35.92510000     -72.76040000
C      -43.78920000     -33.63000000     -72.62890000
H      -44.33610000     -36.94430000     -72.44400000
C      -43.27040000     -33.85840000     -73.93600000
C      -43.42920000     -32.29220000     -72.14850000
C      -42.78010000     -31.54870000     -73.13400000
S      -43.36510000     -35.52630000     -74.36100000
S      -42.48090000     -32.47100000     -74.57310000
H      -42.71350000     -30.46040000     -73.15650000
