40
Properties=species:S:1:pos:R:3 #=T CELL(abcABC):=T 1.889726e+02=T 90.00000=T Traj:=T positionsangstrom=T Step:=T 0=T Bead:=T pbc="F F F"
C      -48.35810000     -32.40230000     -71.49560000
C      -47.70100000     -32.07090000     -70.29260000
C      -47.42490000     -33.04340000     -69.32790000
C      -47.76220000     -34.41160000     -69.57190000
C      -48.46820000     -34.76620000     -70.80940000
C      -48.73300000     -33.75500000     -71.70990000
H      -48.53030000     -31.68700000     -72.25300000
H      -46.96600000     -32.78000000     -68.39400000
H      -48.73810000     -35.83410000     -70.94990000
H      -49.30270000     -33.96020000     -72.62610000
C      -47.61740000     -35.52710000     -68.53960000
H      -48.19840000     -36.39660000     -68.83250000
H      -47.88340000     -35.15480000     -67.54750000
C      -47.56790000     -30.61700000     -70.05300000
H      -47.82530000     -30.02550000     -70.89590000
H      -48.18550000     -30.20130000     -69.21390000
S      -45.85960000     -36.00610000     -68.18710000
S      -45.84720000     -30.22540000     -69.50500000
C      -44.97080000     -36.07670000     -69.88150000
H      -44.10520000     -36.77560000     -69.76840000
H      -45.81110000     -36.49240000     -70.50120000
C      -45.00980000     -30.60090000     -71.04030000
H      -44.71960000     -29.70250000     -71.63470000
H      -45.63800000     -31.12500000     -71.79490000
C      -43.64010000     -31.33140000     -70.89130000
H      -42.94740000     -30.56300000     -70.67110000
H      -43.64940000     -31.97340000     -69.98880000
C      -44.46000000     -34.72400000     -70.38570000
H      -43.57860000     -34.47910000     -69.82390000
H      -45.13280000     -33.98040000     -69.96320000
C      -44.29730000     -34.57430000     -71.87630000
C      -44.30980000     -35.64700000     -72.73700000
C      -43.76870000     -33.41770000     -72.47800000
H      -44.53740000     -36.66020000     -72.45520000
C      -43.34370000     -33.63960000     -73.76640000
C      -43.40510000     -32.03070000     -72.22710000
C      -42.68180000     -31.44250000     -73.23050000
S      -43.69520000     -35.21660000     -74.39580000
S      -42.43250000     -32.46070000     -74.65780000
H      -42.53210000     -30.35570000     -73.31850000
