40
Properties=species:S:1:pos:R:3 #=T CELL(abcABC):=T 1.889726e+02=T 90.00000=T Traj:=T positionsangstrom=T Step:=T 0=T Bead:=T pbc="F F F"
C      -45.62620000     -31.60010000     -67.70180000
C      -45.97930000     -32.93450000     -67.90400000
C      -44.96810000     -33.85590000     -68.35190000
C      -43.66280000     -33.46030000     -68.52320000
C      -43.29610000     -32.07810000     -68.31070000
C      -44.26790000     -31.17760000     -67.94360000
H      -46.24330000     -30.85190000     -67.31790000
H      -45.20170000     -34.89520000     -68.67880000
H      -42.24900000     -31.63530000     -68.44100000
H      -44.01540000     -30.11910000     -67.80240000
C      -42.55150000     -34.41470000     -68.98700000
H      -42.00710000     -34.87930000     -68.11940000
H      -41.83350000     -33.68620000     -69.44920000
C      -47.37100000     -33.39270000     -67.60620000
H      -47.18270000     -34.07510000     -66.82420000
H      -47.99220000     -32.62200000     -67.18820000
S      -42.89620000     -35.80780000     -70.08370000
S      -48.18360000     -34.33490000     -69.02110000
C      -43.22580000     -34.94050000     -71.73540000
H      -42.43630000     -35.26120000     -72.43330000
H      -44.18930000     -35.27640000     -72.05310000
C      -48.01010000     -33.04040000     -70.40280000
H      -48.01160000     -32.01790000     -69.94710000
H      -48.90950000     -33.24150000     -71.06930000
C      -46.66240000     -33.24350000     -71.15000000
H      -45.96330000     -32.56340000     -70.78340000
H      -46.26250000     -34.22680000     -70.90360000
C      -43.33430000     -33.38130000     -71.82540000
H      -42.37660000     -32.84980000     -71.66050000
H      -43.95490000     -32.98050000     -71.02170000
C      -44.01470000     -33.07360000     -73.24010000
C      -43.29670000     -32.99030000     -74.37460000
C      -45.46000000     -33.08140000     -73.43470000
H      -42.21020000     -32.95460000     -74.37490000
C      -45.73100000     -32.93480000     -74.77190000
C      -46.67310000     -33.07570000     -72.61600000
C      -47.77430000     -32.85210000     -73.44600000
S      -44.29420000     -32.78670000     -75.75870000
S      -47.39050000     -32.71760000     -75.17140000
H      -48.80560000     -32.93960000     -73.11550000
