40
Properties=species:S:1:pos:R:3 #=T CELL(abcABC):=T 1.889726e+02=T 90.00000=T Traj:=T positionsangstrom=T Step:=T 0=T Bead:=T pbc="F F F"
C      -45.60550000     -31.44910000     -68.20280000
C      -45.97520000     -32.78120000     -68.08450000
C      -44.99030000     -33.75210000     -68.30330000
C      -43.58270000     -33.43880000     -68.44730000
C      -43.26120000     -32.06560000     -68.50060000
C      -44.26400000     -31.06680000     -68.33300000
H      -46.33570000     -30.69720000     -68.24440000
H      -45.38080000     -34.80020000     -68.28970000
H      -42.29100000     -31.75420000     -68.61040000
H      -43.99100000     -29.96840000     -68.32570000
C      -42.52260000     -34.46530000     -68.61100000
H      -42.37960000     -34.92670000     -67.63430000
H      -41.64400000     -33.95290000     -68.92900000
C      -47.47290000     -33.07050000     -67.99210000
H      -47.65890000     -33.34280000     -66.89290000
H      -47.93270000     -32.13680000     -68.24600000
S      -42.99010000     -35.83830000     -69.75010000
S      -48.06330000     -34.34570000     -69.08400000
C      -43.89730000     -35.25570000     -71.20300000
H      -43.67800000     -35.77760000     -72.16490000
H      -44.92500000     -35.55170000     -71.12000000
C      -48.23490000     -33.43080000     -70.68380000
H      -48.81510000     -32.53880000     -70.58860000
H      -48.78020000     -34.00810000     -71.40510000
C      -46.86150000     -33.26040000     -71.32950000
H      -46.41260000     -32.36530000     -70.83450000
H      -46.28990000     -34.15490000     -71.12760000
C      -43.63510000     -33.77520000     -71.64290000
H      -42.53840000     -33.69910000     -71.81720000
H      -43.82830000     -32.97510000     -70.99030000
C      -44.12480000     -33.44730000     -73.01750000
C      -43.26130000     -33.42640000     -74.09310000
C      -45.40660000     -33.09520000     -73.44720000
H      -42.23210000     -33.68110000     -74.05370000
C      -45.56910000     -32.84720000     -74.83400000
C      -46.71410000     -32.97030000     -72.77450000
C      -47.71120000     -32.62200000     -73.63200000
S      -43.99520000     -32.88160000     -75.59470000
S      -47.14560000     -32.26830000     -75.25650000
H      -48.75200000     -32.45850000     -73.41820000
