40
Properties=species:S:1:pos:R:3 #=T CELL(abcABC):=T 1.889726e+02=T 90.00000=T Traj:=T positionsangstrom=T Step:=T 0=T Bead:=T pbc="F F F"
C      -45.59350000     -31.37760000     -68.18360000
C      -45.91960000     -32.72750000     -68.11830000
C      -44.93880000     -33.71260000     -68.17930000
C      -43.57810000     -33.38540000     -68.45530000
C      -43.24910000     -31.98680000     -68.49390000
C      -44.22060000     -31.04620000     -68.31200000
H      -46.39210000     -30.70600000     -68.23260000
H      -45.28550000     -34.73860000     -68.18900000
H      -42.19070000     -31.75720000     -68.65830000
H      -43.95410000     -29.95250000     -68.36120000
C      -42.49470000     -34.43320000     -68.73170000
H      -42.12200000     -34.92390000     -67.81900000
H      -41.59250000     -33.99300000     -69.18690000
C      -47.42740000     -33.08470000     -67.91010000
H      -47.72000000     -33.61540000     -66.95250000
H      -48.00400000     -32.13610000     -67.91890000
S      -43.10030000     -35.90720000     -69.65460000
S      -48.28200000     -34.37120000     -69.06790000
C      -43.83760000     -35.27490000     -71.32800000
H      -43.54780000     -36.11200000     -72.01850000
H      -44.83340000     -35.46480000     -70.93290000
C      -48.31710000     -33.58380000     -70.86060000
H      -48.79550000     -32.60120000     -70.66750000
H      -48.93640000     -34.27410000     -71.47940000
C      -46.93740000     -33.46930000     -71.38350000
H      -46.39050000     -32.81760000     -70.71770000
H      -46.44530000     -34.43880000     -71.15180000
C      -43.65260000     -33.79280000     -71.63330000
H      -42.58790000     -33.57570000     -71.38520000
H      -44.13230000     -33.20750000     -70.86150000
C      -44.06080000     -33.48690000     -73.05570000
C      -43.16300000     -33.44140000     -74.06570000
C      -45.38110000     -33.10700000     -73.45700000
H      -42.16210000     -33.78120000     -74.16770000
C      -45.48880000     -32.78360000     -74.80220000
C      -46.68540000     -32.89950000     -72.76960000
C      -47.62680000     -32.37690000     -73.62860000
S      -43.99660000     -33.02260000     -75.62950000
S      -47.01240000     -32.07830000     -75.26250000
H      -48.68200000     -32.22480000     -73.42570000
