40
Properties=species:S:1:pos:R:3 #=T CELL(abcABC):=T 1.889726e+02=T 90.00000=T Traj:=T positionsangstrom=T Step:=T 0=T Bead:=T pbc="F F F"
C      -48.84180000     -33.12700000     -70.98480000
C      -48.14930000     -32.62150000     -69.91340000
C      -47.63830000     -33.53500000     -68.95090000
C      -47.83310000     -34.97220000     -69.12010000
C      -48.70310000     -35.39410000     -70.12590000
C      -49.20190000     -34.45310000     -71.04260000
H      -49.33870000     -32.41340000     -71.67660000
H      -46.97090000     -33.17450000     -68.15670000
H      -48.82640000     -36.42660000     -70.41350000
H      -49.88210000     -34.84660000     -71.88240000
C      -47.12520000     -35.89310000     -68.25310000
H      -47.38690000     -36.93340000     -68.55320000
H      -47.32560000     -35.63790000     -67.17900000
C      -48.15500000     -31.07400000     -69.62690000
H      -48.68820000     -30.60150000     -70.49680000
H      -48.71670000     -30.79690000     -68.72410000
S      -45.20020000     -35.76920000     -68.46910000
S      -46.46780000     -30.33120000     -69.57300000
C      -44.81720000     -35.86210000     -70.24130000
H      -43.74220000     -36.20350000     -70.19540000
H      -45.37410000     -36.74410000     -70.61060000
C      -45.79430000     -31.15030000     -71.14680000
H      -46.29250000     -30.60400000     -72.00630000
H      -45.95020000     -32.20940000     -71.14930000
C      -44.26070000     -31.02960000     -71.19230000
H      -44.00640000     -29.93870000     -71.05050000
H      -43.90210000     -31.42850000     -70.24840000
C      -44.89720000     -34.53860000     -71.10000000
H      -44.88540000     -33.67110000     -70.44980000
H      -46.02180000     -34.46900000     -71.33860000
C      -43.90200000     -34.36870000     -72.20890000
C      -43.39710000     -35.46440000     -72.84360000
C      -43.47190000     -33.12570000     -72.68820000
H      -43.66660000     -36.45720000     -72.64170000
C      -42.92730000     -33.27070000     -73.93820000
C      -43.65870000     -31.64830000     -72.39480000
C      -43.10580000     -30.89520000     -73.38840000
S      -42.57020000     -34.96160000     -74.31320000
S      -42.53150000     -31.83540000     -74.84030000
H      -43.06080000     -29.82070000     -73.29210000
