40
Properties=species:S:1:pos:R:3 #=T CELL(abcABC):=T 1.889726e+02=T 90.00000=T Traj:=T positionsangstrom=T Step:=T 0=T Bead:=T pbc="F F F"
C      -46.01790000     -31.23140000     -68.32500000
C      -46.40040000     -32.56640000     -68.11860000
C      -45.39450000     -33.52130000     -68.24230000
C      -44.05490000     -33.24940000     -68.46620000
C      -43.72630000     -31.90740000     -68.76810000
C      -44.69390000     -30.91880000     -68.70720000
H      -46.72770000     -30.41520000     -68.06240000
H      -45.75240000     -34.54930000     -68.12890000
H      -42.71080000     -31.63810000     -69.07710000
H      -44.51200000     -29.83180000     -68.91670000
C      -42.91050000     -34.31670000     -68.45430000
H      -42.64560000     -34.57720000     -67.41910000
H      -41.98320000     -33.96200000     -68.87380000
C      -47.83280000     -32.94200000     -67.85450000
H      -47.91450000     -33.64620000     -66.94390000
H      -48.35800000     -32.01430000     -67.63070000
S      -43.33970000     -35.90250000     -69.19820000
S      -48.69780000     -33.70360000     -69.37610000
C      -43.73740000     -35.52770000     -71.03870000
H      -43.21860000     -36.25460000     -71.72730000
H      -44.81790000     -35.67920000     -71.20850000
C      -47.80940000     -32.72700000     -70.67920000
H      -47.46060000     -31.77900000     -70.25700000
H      -48.58140000     -32.45740000     -71.38670000
C      -46.60930000     -33.43520000     -71.35350000
H      -45.80360000     -33.26250000     -70.71170000
H      -46.71550000     -34.54280000     -71.30190000
C      -43.36290000     -34.11190000     -71.65520000
H      -42.25750000     -33.88720000     -71.59130000
H      -43.73970000     -33.31650000     -71.04030000
C      -43.80390000     -33.92080000     -73.08360000
C      -42.89220000     -33.86780000     -74.16470000
C      -44.99910000     -33.29400000     -73.46520000
H      -41.87270000     -34.20320000     -73.97690000
C      -45.06220000     -32.95990000     -74.85800000
C      -46.28540000     -32.97040000     -72.79100000
C      -47.23810000     -32.59930000     -73.64570000
S      -43.58190000     -33.30680000     -75.66470000
S      -46.68520000     -32.48910000     -75.27300000
H      -48.37390000     -32.42350000     -73.52710000
