40
Properties=species:S:1:pos:R:3 #=T CELL(abcABC):=T 1.889726e+02=T 90.00000=T Traj:=T positionsangstrom=T Step:=T 0=T Bead:=T pbc="F F F"
C      -46.16970000     -31.26930000     -68.44500000
C      -46.42750000     -32.56770000     -68.06930000
C      -45.34960000     -33.48750000     -68.02800000
C      -44.04800000     -33.19550000     -68.36530000
C      -43.79330000     -31.81190000     -68.59280000
C      -44.82600000     -30.85640000     -68.56900000
H      -46.94300000     -30.55650000     -68.63200000
H      -45.65750000     -34.48370000     -67.66850000
H      -42.82930000     -31.43980000     -68.85760000
H      -44.71890000     -29.74750000     -68.69420000
C      -42.94550000     -34.27730000     -68.48820000
H      -42.63570000     -34.60190000     -67.44360000
H      -42.06160000     -33.88990000     -68.95430000
C      -47.78720000     -33.05110000     -67.86090000
H      -47.81860000     -33.87590000     -67.16070000
H      -48.41960000     -32.29820000     -67.49110000
S      -43.49910000     -35.86830000     -69.34180000
S      -48.71000000     -33.53200000     -69.39970000
C      -43.85960000     -35.40880000     -71.07500000
H      -43.51050000     -36.23390000     -71.71820000
H      -44.92550000     -35.26610000     -71.06930000
C      -47.99140000     -32.76880000     -70.95360000
H      -47.97970000     -31.68880000     -70.88610000
H      -48.74050000     -33.00190000     -71.75850000
C      -46.73600000     -33.44310000     -71.41680000
H      -45.84390000     -33.12000000     -70.87440000
H      -46.80890000     -34.51310000     -71.15140000
C      -43.24170000     -34.07620000     -71.59370000
H      -42.15550000     -34.20140000     -71.52310000
H      -43.43910000     -33.17250000     -71.08140000
C      -43.74110000     -33.83980000     -72.97750000
C      -42.74970000     -33.76140000     -73.98770000
C      -45.01210000     -33.45410000     -73.42580000
H      -41.76100000     -34.14830000     -73.94400000
C      -44.93900000     -33.05980000     -74.77510000
C      -46.36310000     -33.14560000     -72.89560000
C      -47.23880000     -32.71570000     -73.79680000
S      -43.46000000     -33.36660000     -75.49510000
S      -46.45210000     -32.57510000     -75.38130000
H      -48.40610000     -32.64570000     -73.73460000
