40
Properties=species:S:1:pos:R:3 #=T CELL(abcABC):=T 1.889726e+02=T 90.00000=T Traj:=T positionsangstrom=T Step:=T 0=T Bead:=T pbc="F F F"
C      -48.56360000     -34.01650000     -71.34110000
C      -48.38870000     -33.85530000     -69.92900000
C      -47.55040000     -34.71980000     -69.17920000
C      -46.88330000     -35.84610000     -69.82010000
C      -47.01070000     -35.91670000     -71.18580000
C      -47.92960000     -35.10330000     -71.97640000
H      -49.24140000     -33.33770000     -71.89940000
H      -47.47630000     -34.51690000     -68.10650000
H      -46.46990000     -36.68470000     -71.73840000
H      -47.99540000     -35.37510000     -72.96200000
C      -45.91350000     -36.74270000     -69.06270000
H      -45.61900000     -37.56240000     -69.73160000
H      -46.33730000     -37.16570000     -68.16070000
C      -48.79010000     -32.55100000     -69.36290000
H      -49.49850000     -31.96800000     -70.04000000
H      -49.33440000     -32.57300000     -68.42330000
S      -44.42940000     -35.87980000     -68.42630000
S      -47.31680000     -31.43830000     -69.13890000
C      -43.71620000     -35.41280000     -70.07860000
H      -42.63310000     -35.61470000     -70.19790000
H      -44.27440000     -36.06830000     -70.79430000
C      -46.62210000     -31.11320000     -70.82820000
H      -47.29230000     -30.49150000     -71.42870000
H      -46.65920000     -32.03830000     -71.35590000
C      -45.12000000     -30.59250000     -70.84830000
H      -45.09690000     -29.47040000     -70.73950000
H      -44.60800000     -30.89740000     -69.93920000
C      -43.86890000     -33.90890000     -70.42550000
H      -43.24780000     -33.20960000     -69.73780000
H      -44.95420000     -33.66410000     -70.32130000
C      -43.43730000     -33.57730000     -71.83100000
C      -42.84160000     -34.51360000     -72.67290000
C      -43.76210000     -32.35790000     -72.52030000
H      -42.42260000     -35.48390000     -72.32800000
C      -43.34250000     -32.41460000     -73.87580000
C      -44.44700000     -31.09360000     -72.23160000
C      -44.44300000     -30.20290000     -73.28300000
S      -42.63450000     -33.94110000     -74.30310000
S      -43.78790000     -30.97390000     -74.80070000
H      -45.09070000     -29.33240000     -73.51000000
