40
Properties=species:S:1:pos:R:3 #=T CELL(abcABC):=T 1.889726e+02=T 90.00000=T Traj:=T positionsangstrom=T Step:=T 0=T Bead:=T pbc="F F F"
C      -45.15080000     -36.77130000     -69.68860000
C      -45.99880000     -35.88430000     -68.99720000
C      -45.50990000     -34.64440000     -68.56660000
C      -44.14610000     -34.34280000     -68.73750000
C      -43.28130000     -35.21850000     -69.49470000
C      -43.80350000     -36.45780000     -69.92590000
H      -45.46780000     -37.61580000     -70.24630000
H      -46.15190000     -33.93760000     -68.03530000
H      -42.21940000     -34.98970000     -69.71440000
H      -43.03920000     -37.06260000     -70.39210000
C      -43.51660000     -33.22330000     -67.99690000
H      -42.81130000     -33.63850000     -67.29070000
H      -44.23210000     -32.69770000     -67.44290000
C      -47.47100000     -36.17300000     -68.90840000
H      -47.82610000     -37.07360000     -69.51110000
H      -47.84690000     -36.40660000     -67.92910000
S      -42.48410000     -32.20590000     -69.25190000
S      -48.43640000     -34.80400000     -69.56620000
C      -43.73770000     -30.95340000     -69.86840000
H      -44.09490000     -30.43210000     -69.04170000
H      -43.27090000     -30.19660000     -70.53510000
C      -47.73350000     -34.61270000     -71.20990000
H      -48.25960000     -35.10700000     -72.00650000
H      -46.66780000     -34.96490000     -71.27330000
C      -47.59080000     -33.15300000     -71.53410000
H      -48.63010000     -32.74370000     -71.62820000
H      -47.08330000     -32.62330000     -70.73690000
C      -44.89470000     -31.47840000     -70.72290000
H      -45.76930000     -30.79670000     -70.55260000
H      -45.18540000     -32.46480000     -70.33850000
C      -44.59390000     -31.66830000     -72.21930000
C      -43.59410000     -31.08230000     -72.91280000
C      -45.54240000     -32.23880000     -73.09640000
H      -42.74530000     -30.70380000     -72.47200000
C      -45.17710000     -32.21960000     -74.42610000
C      -46.82790000     -32.92610000     -72.83690000
C      -47.43200000     -33.19740000     -74.06090000
S      -43.63940000     -31.36840000     -74.62520000
S      -46.36050000     -32.93480000     -75.44470000
H      -48.39240000     -33.78480000     -74.22690000
