40
Properties=species:S:1:pos:R:3 #=T CELL(abcABC):=T 1.889726e+02=T 90.00000=T Traj:=T positionsangstrom=T Step:=T 0=T Bead:=T pbc="F F F"
C      -46.53560000     -30.71800000     -68.94800000
C      -46.95130000     -31.99460000     -68.63170000
C      -45.92490000     -32.94940000     -68.39770000
C      -44.57080000     -32.66040000     -68.36500000
C      -44.14810000     -31.31090000     -68.69800000
C      -45.18040000     -30.36440000     -68.91380000
H      -47.25880000     -29.91260000     -69.19890000
H      -46.12430000     -33.95190000     -68.32260000
H      -43.05610000     -31.12100000     -68.68760000
H      -44.94060000     -29.39190000     -69.22910000
C      -43.45010000     -33.63960000     -68.01520000
H      -43.43020000     -33.76560000     -66.93660000
H      -42.46330000     -33.30970000     -68.31110000
C      -48.39570000     -32.51950000     -68.73880000
H      -48.64550000     -32.64310000     -67.67340000
H      -48.94960000     -31.70920000     -69.31650000
S      -43.65820000     -35.37160000     -68.66280000
S      -48.70050000     -34.15350000     -69.64930000
C      -43.34590000     -35.28070000     -70.51750000
H      -42.38410000     -35.76370000     -70.84500000
H      -44.18000000     -35.77890000     -70.99500000
C      -48.11360000     -33.94970000     -71.34820000
H      -48.68680000     -33.15830000     -71.76990000
H      -48.45070000     -34.82180000     -71.90090000
C      -46.64230000     -33.75750000     -71.53020000
H      -46.30960000     -32.90440000     -71.03080000
H      -46.03020000     -34.51510000     -71.11630000
C      -43.51930000     -33.81460000     -71.07420000
H      -42.73020000     -33.21130000     -70.62490000
H      -44.44900000     -33.36900000     -70.61880000
C      -43.46080000     -33.74610000     -72.64450000
C      -42.39390000     -33.73400000     -73.50670000
C      -44.73210000     -33.57400000     -73.36260000
H      -41.36700000     -33.82950000     -73.22170000
C      -44.60510000     -33.36110000     -74.71970000
C      -46.15730000     -33.62540000     -72.99230000
C      -46.93910000     -33.47240000     -74.08090000
S      -42.92460000     -33.39640000     -75.21660000
S      -46.05770000     -33.13360000     -75.61580000
H      -48.01350000     -33.51290000     -73.97550000
