40
Properties=species:S:1:pos:R:3 #=T CELL(abcABC):=T 1.889726e+02=T 90.00000=T Traj:=T positionsangstrom=T Step:=T 0=T Bead:=T pbc="F F F"
C      -46.94490000     -30.58520000     -68.76670000
C      -47.22040000     -31.98740000     -68.80980000
C      -46.27610000     -32.90200000     -68.45170000
C      -44.92380000     -32.46270000     -68.27300000
C      -44.61520000     -31.14060000     -68.43930000
C      -45.62720000     -30.16310000     -68.58420000
H      -47.74050000     -29.83180000     -68.87180000
H      -46.49910000     -34.01270000     -68.46190000
H      -43.61040000     -30.78870000     -68.31640000
H      -45.36000000     -29.12380000     -68.57500000
C      -43.75860000     -33.37020000     -67.91090000
H      -43.85020000     -33.49630000     -66.81350000
H      -42.88890000     -32.76280000     -68.11260000
C      -48.59920000     -32.40300000     -69.15240000
H      -49.29240000     -32.44990000     -68.34250000
H      -49.05340000     -31.65070000     -69.78920000
S      -43.75080000     -35.02760000     -68.76730000
S      -48.80380000     -34.07980000     -69.89320000
C      -42.85550000     -34.56430000     -70.42340000
H      -41.75560000     -34.55730000     -70.20550000
H      -43.11800000     -35.42770000     -70.99230000
C      -48.09190000     -33.84900000     -71.54410000
H      -48.50780000     -32.93650000     -72.01540000
H      -48.37580000     -34.79900000     -72.07830000
C      -46.60870000     -33.62770000     -71.58930000
H      -46.36080000     -32.62240000     -71.27390000
H      -45.97320000     -34.31360000     -71.01240000
C      -43.32290000     -33.25850000     -71.02790000
H      -42.56960000     -32.53950000     -70.61260000
H      -44.29940000     -32.96660000     -70.64700000
C      -43.35790000     -33.32310000     -72.55260000
C      -42.23620000     -33.36810000     -73.36370000
C      -44.60040000     -33.56560000     -73.32200000
H      -41.22090000     -33.19270000     -73.06640000
C      -44.30510000     -33.88940000     -74.68610000
C      -46.00370000     -33.79510000     -72.98620000
C      -46.74260000     -34.21350000     -74.07090000
S      -42.63490000     -33.57440000     -75.11430000
S      -45.74410000     -34.27150000     -75.58560000
H      -47.74550000     -34.49750000     -74.04700000
