40
Properties=species:S:1:pos:R:3 #=T CELL(abcABC):=T 1.889726e+02=T 90.00000=T Traj:=T positionsangstrom=T Step:=T 0=T Bead:=T pbc="F F F"
C      -47.07620000     -30.65730000     -69.12640000
C      -47.39300000     -32.01340000     -68.91120000
C      -46.36670000     -32.90430000     -68.42480000
C      -45.08560000     -32.35280000     -68.27390000
C      -44.77610000     -31.01560000     -68.49940000
C      -45.81280000     -30.18870000     -68.84450000
H      -47.91010000     -30.05250000     -69.35880000
H      -46.58250000     -33.90910000     -68.16710000
H      -43.77790000     -30.59680000     -68.48120000
H      -45.69130000     -29.10290000     -68.98720000
C      -43.96060000     -33.23990000     -67.87860000
H      -43.96910000     -33.68940000     -66.87440000
H      -42.93260000     -32.86490000     -68.02840000
C      -48.76540000     -32.49260000     -69.29800000
H      -49.48500000     -32.35670000     -68.45540000
H      -49.24060000     -31.83270000     -70.00630000
S      -44.01730000     -34.86670000     -68.70560000
S      -48.83690000     -34.16470000     -69.91540000
C      -43.00440000     -34.62800000     -70.31170000
H      -41.97820000     -34.78970000     -70.04960000
H      -43.19640000     -35.48280000     -71.00010000
C      -47.99180000     -34.07200000     -71.53960000
H      -48.48720000     -33.26020000     -72.10960000
H      -48.31580000     -34.99200000     -72.06530000
C      -46.46170000     -33.99740000     -71.53210000
H      -46.11970000     -33.06950000     -71.01720000
H      -46.15770000     -34.92580000     -71.00490000
C      -43.16900000     -33.22800000     -70.98820000
H      -42.32890000     -32.58850000     -70.76850000
H      -44.07010000     -32.75200000     -70.59920000
C      -43.21740000     -33.28250000     -72.51500000
C      -42.09440000     -33.19470000     -73.29790000
C      -44.42050000     -33.62590000     -73.29150000
H      -41.00980000     -33.06340000     -73.02100000
C      -44.17810000     -33.75290000     -74.63630000
C      -45.80730000     -34.00590000     -72.96440000
C      -46.54960000     -34.13640000     -74.07460000
S      -42.45260000     -33.55770000     -75.00220000
S      -45.59200000     -34.18810000     -75.54100000
H      -47.59950000     -34.43370000     -74.06870000
