40
Properties=species:S:1:pos:R:3 #=T CELL(abcABC):=T 1.889726e+02=T 90.00000=T Traj:=T positionsangstrom=T Step:=T 0=T Bead:=T pbc="F F F"
C      -47.15790000     -30.61010000     -69.21210000
C      -47.47230000     -32.00650000     -68.97530000
C      -46.48720000     -32.81340000     -68.40190000
C      -45.13150000     -32.29630000     -68.23650000
C      -44.82900000     -30.97370000     -68.48850000
C      -45.86440000     -30.20320000     -69.02780000
H      -47.91390000     -29.93790000     -69.68090000
H      -46.68580000     -33.87190000     -68.42820000
H      -43.84220000     -30.59470000     -68.31430000
H      -45.64540000     -29.18770000     -69.35270000
C      -44.17800000     -33.30890000     -67.67040000
H      -44.64730000     -33.60020000     -66.71270000
H      -43.25130000     -32.77540000     -67.50400000
C      -48.86580000     -32.53650000     -69.32250000
H      -49.46090000     -32.66920000     -68.41990000
H      -49.40690000     -31.85150000     -70.01650000
S      -44.04790000     -34.87540000     -68.70350000
S      -48.75210000     -34.26230000     -70.04600000
C      -43.00720000     -34.63250000     -70.20400000
H      -41.93380000     -34.79060000     -69.92410000
H      -43.32450000     -35.46930000     -70.82500000
C      -47.98370000     -34.05350000     -71.73330000
H      -48.30040000     -33.04350000     -72.09680000
H      -48.36600000     -34.80450000     -72.44270000
C      -46.46160000     -34.01110000     -71.64130000
H      -46.21060000     -32.99550000     -71.37020000
H      -45.97680000     -34.61350000     -70.89990000
C      -43.22890000     -33.27980000     -70.87130000
H      -42.43470000     -32.62070000     -70.56120000
H      -44.22420000     -32.91070000     -70.55920000
C      -43.24190000     -33.42630000     -72.40340000
C      -42.11290000     -33.28390000     -73.15490000
C      -44.38480000     -33.76390000     -73.20680000
H      -41.12900000     -33.12390000     -72.77860000
C      -44.07220000     -33.74540000     -74.52970000
C      -45.79160000     -34.14840000     -73.00890000
C      -46.48270000     -34.18160000     -74.16500000
S      -42.40460000     -33.34930000     -74.88030000
S      -45.41460000     -34.12590000     -75.59160000
H      -47.57010000     -34.32980000     -74.19640000
