40
Properties=species:S:1:pos:R:3 #=T CELL(abcABC):=T 1.889726e+02=T 90.00000=T Traj:=T positionsangstrom=T Step:=T 0=T Bead:=T pbc="F F F"
C      -47.42490000     -29.70060000     -73.25020000
C      -46.31370000     -30.37550000     -72.75120000
C      -45.77690000     -31.56300000     -73.42640000
C      -46.53880000     -32.05210000     -74.52110000
C      -47.62560000     -31.26260000     -75.01890000
C      -47.90760000     -30.02220000     -74.49400000
H      -47.72880000     -28.75600000     -72.77180000
H      -44.78750000     -31.98890000     -73.06290000
H      -48.23180000     -31.68590000     -75.79470000
H      -48.59690000     -29.41170000     -74.99520000
C      -46.38340000     -33.52170000     -75.10590000
H      -46.57130000     -33.41480000     -76.17750000
H      -47.26660000     -34.09960000     -74.81600000
C      -45.63640000     -29.72610000     -71.58660000
H      -44.58250000     -30.04480000     -71.62280000
H      -45.67490000     -28.66310000     -71.62440000
S      -44.91070000     -34.49330000     -74.88730000
S      -46.52740000     -30.10380000     -70.04400000
C      -44.51850000     -34.80870000     -73.04710000
H      -43.93260000     -35.72730000     -72.99500000
H      -43.89640000     -33.97160000     -72.79130000
C      -46.07080000     -31.85190000     -69.73240000
H      -46.73420000     -32.49600000     -70.39830000
H      -46.26940000     -32.09090000     -68.74100000
C      -44.61540000     -32.32940000     -70.11830000
H      -44.46140000     -32.62390000     -71.18830000
H      -43.84400000     -31.52410000     -69.81230000
C      -45.65190000     -35.05430000     -72.07150000
H      -46.38920000     -35.80400000     -72.51280000
H      -46.22760000     -34.13210000     -71.83750000
C      -45.05500000     -35.72150000     -70.82970000
C      -44.99950000     -37.05160000     -70.60390000
C      -44.49980000     -34.93970000     -69.72430000
H      -45.25300000     -37.77190000     -71.33870000
C      -43.88870000     -35.75240000     -68.75050000
C      -44.36590000     -33.53000000     -69.26690000
C      -43.83770000     -33.46740000     -68.04250000
S      -44.01830000     -37.42730000     -69.12520000
S      -43.41000000     -34.99470000     -67.26150000
H      -43.71690000     -32.54590000     -67.50570000
