40
Properties=species:S:1:pos:R:3 #=T CELL(abcABC):=T 1.889726e+02=T 90.00000=T Traj:=T positionsangstrom=T Step:=T 0=T Bead:=T pbc="F F F"
C      -47.21420000     -29.38850000     -73.38380000
C      -46.17730000     -30.23680000     -72.82550000
C      -46.09860000     -31.56530000     -73.15010000
C      -46.99050000     -32.07880000     -74.09460000
C      -48.00120000     -31.30010000     -74.68860000
C      -48.15780000     -29.97390000     -74.25540000
H      -47.36640000     -28.32950000     -73.19820000
H      -45.33240000     -32.17790000     -72.66070000
H      -48.69490000     -31.70870000     -75.38020000
H      -48.97300000     -29.36520000     -74.61620000
C      -46.78490000     -33.57850000     -74.52250000
H      -47.44210000     -33.70660000     -75.35930000
H      -47.21610000     -34.08490000     -73.63370000
C      -45.28180000     -29.69380000     -71.68940000
H      -44.34490000     -30.19710000     -71.57610000
H      -45.11740000     -28.56980000     -71.85950000
S      -45.10330000     -34.07960000     -74.96600000
S      -46.08950000     -30.02370000     -70.04600000
C      -44.37680000     -34.54510000     -73.29120000
H      -43.70580000     -35.38320000     -73.46250000
H      -43.68630000     -33.76130000     -73.07100000
C      -45.88370000     -31.92990000     -70.08960000
H      -46.38850000     -32.29690000     -70.94290000
H      -46.46180000     -32.30050000     -69.16320000
C      -44.43260000     -32.40120000     -69.97150000
H      -44.13390000     -32.41940000     -71.05920000
H      -43.75650000     -31.70940000     -69.48930000
C      -45.36350000     -34.95390000     -72.16660000
H      -46.10060000     -35.61170000     -72.67180000
H      -45.95850000     -33.99320000     -71.99290000
C      -44.83320000     -35.66600000     -70.96930000
C      -44.99140000     -37.03630000     -70.83290000
C      -44.51490000     -35.02110000     -69.68490000
H      -45.38610000     -37.66580000     -71.60190000
C      -44.21610000     -35.95440000     -68.70490000
C      -44.21540000     -33.69140000     -69.21450000
C      -43.56880000     -33.71390000     -68.00760000
S      -44.35620000     -37.61910000     -69.28490000
S      -43.34890000     -35.31460000     -67.34330000
H      -43.19370000     -32.92350000     -67.50660000
