40
Properties=species:S:1:pos:R:3 #=T CELL(abcABC):=T 1.889726e+02=T 90.00000=T Traj:=T positionsangstrom=T Step:=T 0=T Bead:=T pbc="F F F"
C      -44.06360000     -33.25260000     -69.22850000
C      -45.33710000     -32.76410000     -68.89270000
C      -46.36830000     -33.67670000     -69.17970000
C      -46.22950000     -34.90940000     -69.75070000
C      -44.88170000     -35.41080000     -70.00650000
C      -43.84210000     -34.55600000     -69.73920000
H      -43.18020000     -32.72620000     -68.97790000
H      -47.39050000     -33.48580000     -68.86800000
H      -44.70430000     -36.46260000     -70.36780000
H      -42.82450000     -34.91390000     -69.83150000
C      -47.38720000     -35.89820000     -70.00030000
H      -47.64230000     -36.44090000     -69.10860000
H      -47.15930000     -36.59220000     -70.84440000
C      -45.57100000     -31.48540000     -68.21870000
H      -46.60990000     -31.24430000     -68.29320000
H      -45.36880000     -31.43690000     -67.16870000
S      -48.81230000     -34.87070000     -70.59310000
S      -44.35350000     -30.21480000     -68.97290000
C      -48.46400000     -34.89220000     -72.39660000
H      -48.02860000     -35.84550000     -72.65270000
H      -49.40400000     -34.92670000     -72.88750000
C      -45.03480000     -29.91260000     -70.68010000
H      -44.15270000     -29.54810000     -71.21390000
H      -45.73710000     -29.16330000     -70.61130000
C      -45.73580000     -31.06680000     -71.43960000
H      -46.54000000     -31.40210000     -70.76720000
H      -46.24800000     -30.65890000     -72.35140000
C      -47.47520000     -33.73220000     -72.84580000
H      -47.54730000     -32.92920000     -72.15960000
H      -47.94990000     -33.35730000     -73.79190000
C      -46.10260000     -34.07580000     -73.24350000
C      -45.74930000     -35.17190000     -73.94280000
C      -44.98860000     -33.21640000     -72.90590000
H      -46.33080000     -35.94420000     -74.51480000
C      -43.83290000     -33.69430000     -73.53200000
C      -44.72390000     -32.08400000     -72.01050000
C      -43.35420000     -31.87680000     -71.92230000
S      -43.96830000     -35.25650000     -74.35570000
S      -42.29680000     -32.96410000     -72.80760000
H      -42.85090000     -31.20260000     -71.25470000
