40
Properties=species:S:1:pos:R:3 #=T CELL(abcABC):=T 1.889726e+02=T 90.00000=T Traj:=T positionsangstrom=T Step:=T 0=T Bead:=T pbc="F F F"
C      -47.93040000     -31.61180000     -68.86500000
C      -47.89110000     -32.92950000     -69.25340000
C      -46.78830000     -33.64220000     -68.84100000
C      -45.81430000     -33.17480000     -67.94220000
C      -45.84120000     -31.77870000     -67.56360000
C      -46.96790000     -31.08500000     -67.99350000
H      -48.75640000     -30.96360000     -69.00770000
H      -46.70980000     -34.70880000     -68.98010000
H      -45.08380000     -31.27920000     -66.93950000
H      -47.12210000     -30.17730000     -67.45880000
C      -44.67950000     -34.01940000     -67.43650000
H      -44.68690000     -35.07230000     -67.63240000
H      -44.60830000     -33.85330000     -66.33370000
C      -49.02480000     -33.56490000     -69.98890000
H      -49.80700000     -33.87550000     -69.21910000
H      -49.43250000     -32.86880000     -70.68210000
S      -42.98810000     -33.45660000     -68.04360000
S      -48.77940000     -35.22650000     -70.79620000
C      -42.93470000     -33.88530000     -69.94120000
H      -41.88820000     -33.77000000     -70.20850000
H      -43.35810000     -34.83820000     -70.21140000
C      -47.82020000     -34.92420000     -72.42180000
H      -48.59450000     -34.49180000     -73.04790000
H      -47.53510000     -35.89040000     -72.82650000
C      -46.51130000     -34.19590000     -72.21630000
H      -46.75760000     -33.23200000     -71.65220000
H      -46.15390000     -34.85320000     -71.41400000
C      -43.67810000     -32.86340000     -70.75360000
H      -43.58550000     -31.84330000     -70.40430000
H      -44.75130000     -33.07620000     -70.63880000
C      -43.39040000     -32.88490000     -72.24950000
C      -42.21780000     -32.28860000     -72.79440000
C      -44.27170000     -33.39810000     -73.27910000
H      -41.40880000     -31.86850000     -72.26270000
C      -43.68170000     -33.29320000     -74.57970000
C      -45.61820000     -34.01510000     -73.33540000
C      -45.94990000     -34.25730000     -74.68950000
S      -42.29800000     -32.25350000     -74.55210000
S      -44.74680000     -33.72190000     -75.87610000
H      -46.83000000     -34.63390000     -74.98010000
