40
Properties=species:S:1:pos:R:3 #=T CELL(abcABC):=T 1.889726e+02=T 90.00000=T Traj:=T positionsangstrom=T Step:=T 0=T Bead:=T pbc="F F F"
C      -44.92370000     -36.37640000     -74.76660000
C      -44.95090000     -36.39940000     -73.36370000
C      -46.16000000     -36.00880000     -72.75790000
C      -47.20990000     -35.32320000     -73.42540000
C      -47.19150000     -35.35230000     -74.80870000
C      -46.01950000     -35.82280000     -75.43900000
H      -44.05050000     -36.69000000     -75.30580000
H      -46.31590000     -36.03050000     -71.65740000
H      -47.92050000     -34.86540000     -75.31730000
H      -45.86180000     -35.68370000     -76.54250000
C      -48.28200000     -34.53250000     -72.74060000
H      -49.20830000     -34.95750000     -73.11410000
H      -48.20620000     -33.58340000     -73.15050000
C      -43.88450000     -37.08390000     -72.49820000
H      -44.19090000     -38.15060000     -72.55080000
H      -42.96120000     -37.07750000     -73.07950000
S      -48.31150000     -34.55950000     -70.85760000
S      -43.86250000     -36.53740000     -70.77790000
C      -47.73700000     -32.85830000     -70.48030000
H      -47.05880000     -32.60060000     -71.33890000
H      -48.54930000     -32.16610000     -70.45790000
C      -43.26670000     -34.78450000     -70.93660000
H      -42.47110000     -34.65640000     -71.65780000
H      -42.88220000     -34.59270000     -69.89190000
C      -44.38410000     -33.69710000     -71.30730000
H      -44.53730000     -33.74820000     -72.41150000
H      -45.31800000     -34.05820000     -70.79660000
C      -46.89990000     -32.68770000     -69.21470000
H      -46.29890000     -33.55810000     -68.98180000
H      -47.62200000     -32.48550000     -68.34290000
C      -45.96120000     -31.47270000     -69.39990000
C      -46.36620000     -30.25740000     -68.94910000
C      -44.68000000     -31.46120000     -70.00490000
H      -47.31820000     -30.02690000     -68.46800000
C      -44.09160000     -30.19060000     -69.91760000
C      -43.87910000     -32.33100000     -70.85670000
C      -42.71350000     -31.74190000     -71.34630000
S      -45.11540000     -29.01890000     -69.15180000
S      -42.56000000     -30.08530000     -70.73210000
H      -42.02490000     -32.22810000     -72.03730000
