40
Properties=species:S:1:pos:R:3 #=T CELL(abcABC):=T 1.889726e+02=T 90.00000=T Traj:=T positionsangstrom=T Step:=T 0=T Bead:=T pbc="F F F"
C      -45.01100000     -36.47220000     -74.69800000
C      -45.08280000     -36.44530000     -73.30760000
C      -46.23160000     -35.90870000     -72.74490000
C      -47.23690000     -35.27710000     -73.46000000
C      -47.10510000     -35.26420000     -74.89260000
C      -45.98470000     -35.85440000     -75.49000000
H      -44.14900000     -36.91550000     -75.14000000
H      -46.41170000     -36.12030000     -71.70270000
H      -47.90340000     -34.88620000     -75.41060000
H      -45.84450000     -35.97990000     -76.51400000
C      -48.49360000     -34.69580000     -72.81000000
H      -49.42140000     -35.36110000     -72.93350000
H      -48.88370000     -33.67810000     -73.18550000
C      -43.86690000     -36.98230000     -72.54410000
H      -43.82700000     -38.10200000     -72.54260000
H      -42.94750000     -36.58260000     -72.91850000
S      -48.36060000     -34.56360000     -70.96110000
S      -43.95820000     -36.55910000     -70.79220000
C      -47.84740000     -32.79130000     -70.59390000
H      -47.33750000     -32.35980000     -71.47630000
H      -48.73780000     -32.19220000     -70.34670000
C      -43.27700000     -34.88020000     -70.56440000
H      -42.20840000     -34.89690000     -70.91070000
H      -43.20450000     -34.73580000     -69.48510000
C      -44.16580000     -33.78590000     -71.18040000
H      -44.15260000     -33.86980000     -72.23900000
H      -45.19330000     -33.94570000     -71.02010000
C      -46.94660000     -32.62400000     -69.42980000
H      -46.34120000     -33.51560000     -69.23130000
H      -47.53020000     -32.47720000     -68.50920000
C      -45.98120000     -31.42850000     -69.52140000
C      -46.13370000     -30.31680000     -68.74450000
C      -44.71700000     -31.40370000     -70.21080000
H      -46.99090000     -30.20800000     -68.04320000
C      -44.13760000     -30.14460000     -70.05390000
C      -43.80700000     -32.32840000     -70.90190000
C      -42.62740000     -31.70990000     -71.24120000
S      -44.97010000     -29.03230000     -69.01110000
S      -42.53550000     -30.04450000     -70.74170000
H      -41.88680000     -32.19880000     -71.81970000
