40
Properties=species:S:1:pos:R:3 #=T CELL(abcABC):=T 1.889726e+02=T 90.00000=T Traj:=T positionsangstrom=T Step:=T 0=T Bead:=T pbc="F F F"
C      -44.99260000     -35.64420000     -74.40780000
C      -45.26140000     -36.19880000     -73.13530000
C      -46.58370000     -36.08280000     -72.66240000
C      -47.53770000     -35.30220000     -73.34630000
C      -47.23320000     -34.72310000     -74.53330000
C      -45.95410000     -34.92300000     -75.08120000
H      -43.99900000     -35.80380000     -74.83790000
H      -46.85890000     -36.49180000     -71.69470000
H      -47.88830000     -33.98130000     -74.99160000
H      -45.75180000     -34.70510000     -76.14620000
C      -48.86370000     -35.13890000     -72.60950000
H      -49.34470000     -36.09790000     -72.39190000
H      -49.56250000     -34.60930000     -73.33210000
C      -44.22490000     -36.83660000     -72.30960000
H      -44.32970000     -37.97030000     -72.32310000
H      -43.24580000     -36.74140000     -72.78150000
S      -48.79900000     -34.31170000     -70.96830000
S      -44.15490000     -36.40900000     -70.53710000
C      -47.55960000     -32.99610000     -71.13790000
H      -47.11980000     -33.03700000     -72.13900000
H      -48.16070000     -31.97410000     -71.09160000
C      -43.26140000     -34.76130000     -70.57980000
H      -42.17780000     -34.90040000     -70.48080000
H      -43.60490000     -34.27920000     -69.65500000
C      -43.53620000     -33.73810000     -71.74230000
H      -42.84270000     -33.84440000     -72.57870000
H      -44.62440000     -33.84420000     -72.07030000
C      -46.45630000     -33.12220000     -70.06190000
H      -45.92610000     -34.05030000     -70.33590000
H      -46.99530000     -33.38090000     -69.17390000
C      -45.67110000     -31.90910000     -69.83120000
C      -46.23660000     -30.86420000     -69.14610000
C      -44.33220000     -31.65590000     -70.29390000
H      -47.17910000     -30.78440000     -68.57680000
C      -43.87860000     -30.35890000     -69.88940000
C      -43.41190000     -32.34550000     -71.19590000
C      -42.27020000     -31.53670000     -71.41300000
S      -45.10600000     -29.54480000     -68.91600000
S      -42.34140000     -29.99200000     -70.60930000
H      -41.54310000     -31.77610000     -72.18160000
