40
Properties=species:S:1:pos:R:3 #=T CELL(abcABC):=T 1.889726e+02=T 90.00000=T Traj:=T positionsangstrom=T Step:=T 0=T Bead:=T pbc="F F F"
C      -45.06420000     -35.18530000     -67.96040000
C      -45.90600000     -34.07710000     -68.09190000
C      -47.06460000     -34.22070000     -68.88080000
C      -47.39910000     -35.45140000     -69.40040000
C      -46.50880000     -36.61190000     -69.26520000
C      -45.34950000     -36.41100000     -68.54020000
H      -44.17960000     -35.10720000     -67.36280000
H      -47.83940000     -33.46570000     -68.89180000
H      -46.82060000     -37.61770000     -69.66970000
H      -44.75840000     -37.30540000     -68.36050000
C      -48.70940000     -35.51260000     -70.14650000
H      -49.28120000     -34.64350000     -69.99500000
H      -49.34060000     -36.36600000     -69.78630000
C      -45.51000000     -32.78150000     -67.49730000
H      -46.33300000     -32.03440000     -67.39500000
H      -45.14170000     -32.84860000     -66.48440000
S      -48.34280000     -35.76500000     -72.00060000
S      -44.28080000     -31.77380000     -68.51130000
C      -47.23400000     -34.38770000     -72.34270000
H      -47.80910000     -33.69580000     -73.05970000
H      -47.07090000     -33.77170000     -71.44250000
C      -43.23080000     -33.04340000     -69.31370000
H      -43.19840000     -33.89400000     -68.66660000
H      -42.22420000     -32.58640000     -69.43010000
C      -43.68410000     -33.45970000     -70.75600000
H      -43.08910000     -34.35160000     -71.02790000
H      -44.73200000     -33.72760000     -70.77920000
C      -45.82550000     -34.70690000     -72.94780000
H      -45.84490000     -35.59360000     -73.63700000
H      -45.18060000     -34.91700000     -72.09720000
C      -45.30170000     -33.48550000     -73.66560000
C      -45.66770000     -33.12420000     -74.94030000
C      -44.33540000     -32.55400000     -73.06820000
H      -46.36130000     -33.67150000     -75.47350000
C      -44.01290000     -31.48770000     -73.92220000
C      -43.69450000     -32.38370000     -71.79210000
C      -42.93990000     -31.25960000     -71.70170000
S      -44.82420000     -31.67940000     -75.51650000
S      -42.87990000     -30.34010000     -73.19030000
H      -42.23140000     -31.00800000     -70.85610000
