40
Properties=species:S:1:pos:R:3 #=T CELL(abcABC):=T 1.889726e+02=T 90.00000=T Traj:=T positionsangstrom=T Step:=T 0=T Bead:=T pbc="F F F"
C      -45.09340000     -35.44270000     -74.56700000
C      -45.37080000     -36.08670000     -73.32530000
C      -46.65650000     -35.83260000     -72.79100000
C      -47.56710000     -34.98230000     -73.36020000
C      -47.22110000     -34.34860000     -74.51000000
C      -45.98310000     -34.51510000     -75.13280000
H      -44.08620000     -35.55750000     -75.05620000
H      -46.91020000     -36.37200000     -71.87350000
H      -47.90960000     -33.63290000     -74.83610000
H      -45.67130000     -34.02660000     -76.07760000
C      -48.93750000     -34.72240000     -72.68610000
H      -49.44010000     -35.71350000     -72.77800000
H      -49.49510000     -33.99790000     -73.23050000
C      -44.34690000     -36.97390000     -72.69220000
H      -44.75010000     -37.99270000     -72.68090000
H      -43.39720000     -36.87560000     -73.31460000
S      -48.77800000     -34.34450000     -70.91420000
S      -43.95950000     -36.67150000     -70.86710000
C      -47.43050000     -32.95160000     -70.96660000
H      -46.68350000     -33.04930000     -71.82000000
H      -47.95700000     -32.03920000     -71.09930000
C      -43.39290000     -34.94480000     -70.67080000
H      -42.36210000     -34.65450000     -70.81700000
H      -43.54120000     -34.78870000     -69.64230000
C      -44.10230000     -33.88140000     -71.52630000
H      -44.02530000     -34.05520000     -72.59950000
H      -45.14300000     -34.03840000     -71.32690000
C      -46.65070000     -32.94080000     -69.56000000
H      -46.10340000     -33.85790000     -69.35430000
H      -47.38660000     -32.78610000     -68.77260000
C      -45.64150000     -31.84690000     -69.42340000
C      -45.92500000     -30.71570000     -68.60900000
C      -44.44510000     -31.73160000     -70.17530000
H      -46.85940000     -30.47950000     -68.12220000
C      -43.83570000     -30.50960000     -69.96060000
C      -43.66470000     -32.52680000     -71.07380000
C      -42.51650000     -31.89020000     -71.47960000
S      -44.59600000     -29.55800000     -68.70620000
S      -42.42880000     -30.23750000     -70.90580000
H      -41.69370000     -32.14950000     -72.17910000
