40
Properties=species:S:1:pos:R:3 #=T CELL(abcABC):=T 1.889726e+02=T 90.00000=T Traj:=T positionsangstrom=T Step:=T 0=T Bead:=T pbc="F F F"
C      -45.16630000     -35.46750000     -74.68740000
C      -45.31040000     -35.99790000     -73.41910000
C      -46.56630000     -35.72590000     -72.83450000
C      -47.52820000     -34.84770000     -73.35680000
C      -47.22900000     -34.25290000     -74.58770000
C      -46.10320000     -34.62630000     -75.29160000
H      -44.31150000     -35.74000000     -75.21670000
H      -46.80070000     -36.25130000     -71.91200000
H      -47.90330000     -33.48560000     -75.02540000
H      -45.89400000     -34.41150000     -76.33500000
C      -48.75520000     -34.37480000     -72.54850000
H      -49.63060000     -34.96300000     -72.87770000
H      -48.95760000     -33.34960000     -72.82070000
C      -44.33840000     -36.90510000     -72.75430000
H      -44.61730000     -37.87700000     -73.01620000
H      -43.32410000     -36.66370000     -73.09790000
S      -48.54390000     -34.51910000     -70.71920000
S      -44.28050000     -36.76360000     -70.88440000
C      -47.56420000     -32.93970000     -70.41130000
H      -47.11070000     -32.75800000     -71.37360000
H      -48.15410000     -32.05770000     -70.20380000
C      -43.43760000     -34.98850000     -70.70830000
H      -42.34210000     -35.16400000     -70.88300000
H      -43.62950000     -34.71560000     -69.67990000
C      -44.08500000     -33.91310000     -71.58370000
H      -43.94540000     -34.01630000     -72.62630000
H      -45.20630000     -34.08540000     -71.45630000
C      -46.53600000     -33.09620000     -69.33620000
H      -46.09960000     -34.04030000     -69.33230000
H      -47.11570000     -33.07010000     -68.40130000
C      -45.59200000     -31.87530000     -69.41030000
C      -45.76910000     -30.81440000     -68.57050000
C      -44.43270000     -31.68840000     -70.25890000
H      -46.62070000     -30.70410000     -67.89490000
C      -43.84090000     -30.45000000     -70.06970000
C      -43.67920000     -32.48880000     -71.22320000
C      -42.64360000     -31.80480000     -71.66510000
S      -44.58240000     -29.53530000     -68.80490000
S      -42.42910000     -30.23040000     -70.94160000
H      -41.84740000     -32.16230000     -72.33420000
