40
Properties=species:S:1:pos:R:3 #=T CELL(abcABC):=T 1.889726e+02=T 90.00000=T Traj:=T positionsangstrom=T Step:=T 0=T Bead:=T pbc="F F F"
C      -45.25220000     -35.40550000     -74.67120000
C      -45.38080000     -36.08210000     -73.45850000
C      -46.57930000     -35.79630000     -72.80250000
C      -47.59430000     -34.92010000     -73.31290000
C      -47.42040000     -34.31470000     -74.52420000
C      -46.23050000     -34.59570000     -75.21260000
H      -44.30850000     -35.46290000     -75.22540000
H      -46.66930000     -36.29140000     -71.84090000
H      -48.21010000     -33.63980000     -74.81740000
H      -45.97730000     -34.12940000     -76.17500000
C      -48.79590000     -34.50700000     -72.48630000
H      -49.60830000     -35.23060000     -72.67900000
H      -49.11360000     -33.49250000     -72.76100000
C      -44.45560000     -37.02500000     -72.79350000
H      -44.88890000     -38.05480000     -72.84820000
H      -43.49600000     -37.13930000     -73.34670000
S      -48.47480000     -34.44410000     -70.66440000
S      -44.25920000     -36.66220000     -70.97370000
C      -47.62420000     -32.84120000     -70.27250000
H      -47.24390000     -32.61020000     -71.33310000
H      -48.34110000     -32.12510000     -69.89860000
C      -43.41850000     -35.09700000     -70.80490000
H      -42.33890000     -35.23120000     -71.04090000
H      -43.42240000     -34.91170000     -69.75130000
C      -44.09220000     -33.88110000     -71.59360000
H      -43.73330000     -33.99790000     -72.58990000
H      -45.21990000     -33.86120000     -71.50930000
C      -46.50180000     -33.05540000     -69.30560000
H      -45.90130000     -33.93270000     -69.47430000
H      -46.94800000     -33.20390000     -68.27320000
C      -45.48430000     -31.87400000     -69.22430000
C      -45.72120000     -30.68530000     -68.55980000
C      -44.31280000     -31.78250000     -70.11100000
H      -46.59640000     -30.49730000     -68.02380000
C      -43.67700000     -30.51970000     -69.99610000
C      -43.63710000     -32.56730000     -71.10100000
C      -42.64170000     -31.97060000     -71.71960000
S      -44.57160000     -29.43040000     -68.87650000
S      -42.42010000     -30.24430000     -71.13340000
H      -42.10280000     -32.30640000     -72.55810000
