40
Properties=species:S:1:pos:R:3 #=T CELL(abcABC):=T 1.889726e+02=T 90.00000=T Traj:=T positionsangstrom=T Step:=T 0=T Bead:=T pbc="F F F"
C      -45.29480000     -35.22870000     -74.58340000
C      -45.50670000     -35.97360000     -73.38440000
C      -46.69680000     -35.83390000     -72.69180000
C      -47.73020000     -34.97310000     -73.03200000
C      -47.53870000     -34.27440000     -74.26290000
C      -46.35610000     -34.40300000     -75.01230000
H      -44.41810000     -35.23570000     -75.18110000
H      -46.96930000     -36.49520000     -71.89600000
H      -48.34520000     -33.64940000     -74.67670000
H      -46.33010000     -33.80070000     -75.88480000
C      -48.96940000     -34.76740000     -72.20750000
H      -49.56920000     -35.69060000     -72.15750000
H      -49.53480000     -33.96720000     -72.66830000
C      -44.51540000     -37.01930000     -72.94090000
H      -44.92140000     -38.01110000     -72.89340000
H      -43.64040000     -36.88440000     -73.63830000
S      -48.62290000     -34.43490000     -70.40000000
S      -44.01950000     -36.74290000     -71.18740000
C      -47.49360000     -33.00830000     -70.59330000
H      -46.90870000     -33.05930000     -71.45770000
H      -48.11580000     -32.08470000     -70.79210000
C      -43.38590000     -34.99850000     -70.98890000
H      -42.33230000     -35.03140000     -71.16520000
H      -43.52830000     -34.79040000     -69.95990000
C      -44.24740000     -33.84490000     -71.67520000
H      -44.31650000     -34.08610000     -72.77700000
H      -45.22790000     -33.83810000     -71.32770000
C      -46.61400000     -32.93950000     -69.32360000
H      -46.10680000     -33.92850000     -69.19360000
H      -47.12870000     -32.88480000     -68.41040000
C      -45.58430000     -31.76200000     -69.47080000
C      -45.72850000     -30.58980000     -68.67870000
C      -44.32960000     -31.73380000     -70.24990000
H      -46.43970000     -30.40930000     -67.81660000
C      -43.62970000     -30.53930000     -70.07140000
C      -43.64510000     -32.56160000     -71.21340000
C      -42.58260000     -31.97590000     -71.78740000
S      -44.41280000     -29.43660000     -68.93660000
S      -42.23500000     -30.34860000     -71.03650000
H      -41.88510000     -32.36390000     -72.44250000
