40
Properties=species:S:1:pos:R:3 #=T CELL(abcABC):=T 1.889726e+02=T 90.00000=T Traj:=T positionsangstrom=T Step:=T 0=T Bead:=T pbc="F F F"
C      -45.49820000     -35.23800000     -74.64400000
C      -45.56910000     -36.02630000     -73.46330000
C      -46.74310000     -36.01990000     -72.66480000
C      -47.73340000     -35.04010000     -72.91650000
C      -47.62460000     -34.15930000     -74.02310000
C      -46.52710000     -34.34000000     -74.88900000
H      -44.59020000     -35.26470000     -75.29660000
H      -47.00590000     -36.55710000     -71.76550000
H      -48.33850000     -33.37370000     -74.15680000
H      -46.64240000     -33.70810000     -75.84730000
C      -49.05790000     -34.87040000     -72.15190000
H      -49.69630000     -35.77060000     -72.11520000
H      -49.61590000     -34.06500000     -72.66170000
C      -44.42430000     -36.88420000     -72.96340000
H      -44.76770000     -37.96590000     -72.95720000
H      -43.64460000     -36.92590000     -73.65760000
S      -48.70590000     -34.47020000     -70.40440000
S      -43.85250000     -36.73110000     -71.18810000
C      -47.85400000     -32.82500000     -70.45580000
H      -47.52530000     -32.59490000     -71.51030000
H      -48.63130000     -32.19490000     -70.06560000
C      -43.20090000     -35.04460000     -71.07960000
H      -42.29110000     -35.03350000     -71.65920000
H      -42.91130000     -34.88910000     -70.05130000
C      -44.05700000     -33.92250000     -71.75430000
H      -43.87480000     -33.83710000     -72.80630000
H      -45.12870000     -34.16100000     -71.57990000
C      -46.58500000     -32.81790000     -69.53320000
H      -46.07480000     -33.69850000     -69.83630000
H      -46.88320000     -32.95150000     -68.48960000
C      -45.67360000     -31.65250000     -69.64380000
C      -45.80300000     -30.53910000     -68.78070000
C      -44.42530000     -31.61600000     -70.37890000
H      -46.73450000     -30.22050000     -68.18100000
C      -43.61060000     -30.52000000     -70.05770000
C      -43.63140000     -32.54090000     -71.27280000
C      -42.49490000     -32.00810000     -71.71400000
S      -44.38740000     -29.42290000     -68.89410000
S      -42.08540000     -30.48880000     -70.96940000
H      -41.68520000     -32.54640000     -72.41050000
