40
Properties=species:S:1:pos:R:3 #=T CELL(abcABC):=T 1.889726e+02=T 90.00000=T Traj:=T positionsangstrom=T Step:=T 0=T Bead:=T pbc="F F F"
C      -46.37370000     -32.06240000     -67.22980000
C      -45.45480000     -31.83800000     -68.25110000
C      -45.91380000     -31.26540000     -69.45390000
C      -47.25060000     -30.92830000     -69.60290000
C      -48.21210000     -31.13710000     -68.62210000
C      -47.70770000     -31.79500000     -67.44320000
H      -46.17510000     -32.43810000     -66.23170000
H      -45.20500000     -30.97170000     -70.21240000
H      -49.23060000     -30.85970000     -68.72390000
H      -48.38420000     -31.99350000     -66.70910000
C      -47.71590000     -30.34620000     -71.00950000
H      -46.93450000     -29.94440000     -71.58080000
H      -48.30050000     -29.48650000     -70.81970000
C      -43.94360000     -31.90320000     -68.05660000
H      -43.48440000     -31.37770000     -68.91760000
H      -43.63570000     -31.27230000     -67.15450000
S      -48.64850000     -31.56950000     -72.00880000
S      -43.37400000     -33.66000000     -67.82150000
C      -47.30270000     -32.24040000     -73.08350000
H      -47.89580000     -32.77270000     -73.80590000
H      -46.67750000     -31.43870000     -73.51610000
C      -43.95840000     -34.25680000     -69.58600000
H      -45.00580000     -34.03750000     -69.58000000
H      -43.72140000     -35.30250000     -69.52900000
C      -43.27090000     -33.54350000     -70.80200000
H      -43.85690000     -32.57330000     -71.08520000
H      -42.16200000     -33.40540000     -70.57250000
C      -46.47120000     -33.22580000     -72.26430000
H      -47.02360000     -33.88820000     -71.66920000
H      -45.76860000     -32.74990000     -71.55990000
C      -45.71580000     -34.14380000     -73.26180000
C      -46.26270000     -34.55780000     -74.45310000
C      -44.39580000     -34.65200000     -73.01520000
H      -47.32610000     -34.32360000     -74.79120000
C      -44.03450000     -35.58590000     -73.98890000
C      -43.25160000     -34.42610000     -72.07720000
C      -42.16420000     -35.23320000     -72.34350000
S      -45.17730000     -35.58560000     -75.29090000
S      -42.37710000     -36.13030000     -73.85740000
H      -41.16030000     -35.37410000     -71.88570000
