40
Properties=species:S:1:pos:R:3 #=T CELL(abcABC):=T 1.889726e+02=T 90.00000=T Traj:=T positionsangstrom=T Step:=T 0=T Bead:=T pbc="F F F"
C      -45.66510000     -32.28650000     -67.32640000
C      -44.79320000     -31.78470000     -68.31250000
C      -45.31200000     -30.90600000     -69.28670000
C      -46.65200000     -30.56600000     -69.44740000
C      -47.49920000     -31.23650000     -68.55060000
C      -47.04390000     -32.08350000     -67.52430000
H      -45.14790000     -32.94560000     -66.55100000
H      -44.55040000     -30.59920000     -70.03470000
H      -48.57100000     -31.15360000     -68.86420000
H      -47.72040000     -32.48170000     -66.76020000
C      -47.19230000     -29.74710000     -70.54230000
H      -46.39840000     -29.17560000     -71.03940000
H      -48.01440000     -29.05700000     -70.22240000
C      -43.30630000     -32.13450000     -68.20260000
H      -42.75420000     -31.58390000     -68.96740000
H      -42.94670000     -31.77570000     -67.27900000
S      -48.08780000     -30.67860000     -71.81120000
S      -42.89750000     -33.93260000     -68.29970000
C      -46.75500000     -31.89210000     -72.29340000
H      -46.66110000     -31.88740000     -73.37200000
H      -45.77330000     -31.58470000     -71.85410000
C      -43.89300000     -34.63990000     -69.66820000
H      -44.94110000     -34.66780000     -69.48480000
H      -43.42880000     -35.68230000     -69.81770000
C      -43.68620000     -33.82670000     -70.96280000
H      -44.49570000     -33.06160000     -71.01540000
H      -42.63180000     -33.46360000     -70.96800000
C      -46.99610000     -33.38730000     -72.05590000
H      -48.08250000     -33.57870000     -72.26030000
H      -46.68830000     -33.59130000     -71.05220000
C      -46.28580000     -34.36710000     -72.97640000
C      -47.03260000     -34.81910000     -74.05010000
C      -44.93200000     -34.78150000     -73.04840000
H      -48.08140000     -34.50490000     -74.22920000
C      -44.70010000     -35.59390000     -74.12700000
C      -43.77560000     -34.68140000     -72.22450000
C      -42.73110000     -35.38190000     -72.70710000
S      -46.04150000     -35.74270000     -75.20490000
S      -43.08630000     -36.15950000     -74.19460000
H      -41.68610000     -35.53800000     -72.40510000
