40
Properties=species:S:1:pos:R:3 #=T CELL(abcABC):=T 1.889726e+02=T 90.00000=T Traj:=T positionsangstrom=T Step:=T 0=T Bead:=T pbc="F F F"
C      -45.69720000     -32.05170000     -67.27100000
C      -44.69230000     -31.83470000     -68.24690000
C      -45.07630000     -31.11430000     -69.39920000
C      -46.37940000     -30.67310000     -69.56080000
C      -47.35890000     -31.03270000     -68.60020000
C      -46.99040000     -31.70150000     -67.47820000
H      -45.43260000     -32.65730000     -66.41050000
H      -44.29720000     -30.79810000     -70.07100000
H      -48.34260000     -30.52490000     -68.59830000
H      -47.79210000     -31.99870000     -66.75260000
C      -46.77470000     -29.76530000     -70.74190000
H      -45.90930000     -29.39370000     -71.21360000
H      -47.23780000     -28.84130000     -70.23290000
C      -43.25690000     -32.27310000     -68.06270000
H      -42.57160000     -31.79180000     -68.79350000
H      -42.93540000     -32.02230000     -67.09590000
S      -47.98760000     -30.55760000     -71.84720000
S      -42.86950000     -34.03990000     -68.29760000
C      -47.02160000     -31.80220000     -72.82230000
H      -47.59320000     -32.05260000     -73.70390000
H      -46.06590000     -31.34820000     -73.27080000
C      -43.67520000     -34.44280000     -69.89060000
H      -44.73300000     -34.40260000     -69.72930000
H      -43.54170000     -35.52510000     -70.01090000
C      -43.31930000     -33.68210000     -71.15420000
H      -43.90940000     -32.80520000     -71.31150000
H      -42.28030000     -33.36230000     -71.16650000
C      -46.69870000     -33.01030000     -71.96940000
H      -47.58920000     -33.09240000     -71.31850000
H      -45.85870000     -32.84730000     -71.32430000
C      -46.32840000     -34.22970000     -72.80680000
C      -47.19290000     -34.83530000     -73.74080000
C      -45.02800000     -34.83100000     -72.89930000
H      -48.29460000     -34.70720000     -73.86110000
C      -44.94550000     -35.71770000     -73.96850000
C      -43.68740000     -34.62740000     -72.36640000
C      -42.73670000     -35.39750000     -73.04190000
S      -46.47540000     -36.03150000     -74.72320000
S      -43.38120000     -36.38340000     -74.32850000
H      -41.66000000     -35.31860000     -72.77970000
