40
Properties=species:S:1:pos:R:3 #=T CELL(abcABC):=T 1.889726e+02=T 90.00000=T Traj:=T positionsangstrom=T Step:=T 0=T Bead:=T pbc="F F F"
C      -45.26710000     -35.83450000     -74.22990000
C      -45.23110000     -36.28180000     -72.91200000
C      -46.38750000     -36.07830000     -72.12560000
C      -47.57140000     -35.60280000     -72.59880000
C      -47.64610000     -35.06640000     -73.95100000
C      -46.49190000     -35.23450000     -74.71330000
H      -44.44480000     -36.10570000     -74.98230000
H      -46.33230000     -36.26820000     -71.03040000
H      -48.57270000     -34.65960000     -74.39610000
H      -46.56110000     -35.12090000     -75.81150000
C      -48.81660000     -35.53830000     -71.81120000
H      -49.22630000     -36.47810000     -71.67940000
H      -49.56900000     -35.03560000     -72.37310000
C      -44.03960000     -37.03890000     -72.35220000
H      -44.20930000     -38.02640000     -71.82790000
H      -43.39670000     -37.14240000     -73.18440000
S      -48.56990000     -34.72360000     -70.16990000
S      -43.27870000     -35.98430000     -71.12350000
C      -47.42930000     -33.26070000     -70.56370000
H      -47.00100000     -33.55240000     -71.54600000
H      -48.00210000     -32.37300000     -70.59920000
C      -42.96910000     -34.39020000     -72.05630000
H      -42.52510000     -34.65520000     -73.03220000
H      -42.37400000     -33.80440000     -71.34960000
C      -44.18150000     -33.51030000     -72.21100000
H      -44.59860000     -33.41890000     -73.14370000
H      -45.01500000     -33.81960000     -71.62280000
C      -46.31510000     -33.28280000     -69.52320000
H      -45.59580000     -34.15940000     -69.61390000
H      -46.71840000     -33.34120000     -68.56740000
C      -45.50180000     -31.94040000     -69.56160000
C      -45.77830000     -31.02190000     -68.57420000
C      -44.58440000     -31.42750000     -70.58790000
H      -46.53530000     -31.05440000     -67.83070000
C      -44.04920000     -30.19980000     -70.19170000
C      -43.91140000     -32.04000000     -71.72600000
C      -43.02490000     -31.21620000     -72.36110000
S      -44.79730000     -29.55520000     -68.75440000
S      -42.97190000     -29.61390000     -71.51020000
H      -42.39730000     -31.50050000     -73.22080000
