40
Properties=species:S:1:pos:R:3 #=T CELL(abcABC):=T 1.889726e+02=T 90.00000=T Traj:=T positionsangstrom=T Step:=T 0=T Bead:=T pbc="F F F"
C      -46.86910000     -32.87410000     -67.45840000
C      -45.87260000     -33.72470000     -67.96960000
C      -44.58800000     -33.22710000     -68.23860000
C      -44.40870000     -31.80670000     -68.17730000
C      -45.40810000     -31.00350000     -67.61930000
C      -46.61980000     -31.50850000     -67.18020000
H      -47.83910000     -33.33300000     -67.18900000
H      -43.87010000     -33.95110000     -68.67430000
H      -45.28010000     -29.90020000     -67.49750000
H      -47.31920000     -30.81740000     -66.74630000
C      -43.06090000     -31.34190000     -68.67610000
H      -42.44010000     -32.25090000     -68.88630000
H      -42.49930000     -30.74360000     -67.98270000
C      -46.21710000     -35.25310000     -68.08560000
H      -45.28080000     -35.74610000     -68.40660000
H      -46.40460000     -35.55580000     -67.02570000
S      -43.10040000     -30.36390000     -70.25790000
S      -47.60980000     -35.63450000     -69.22250000
C      -43.35840000     -31.63900000     -71.55030000
H      -42.76130000     -31.34360000     -72.41430000
H      -42.93490000     -32.56040000     -71.13720000
C      -47.05030000     -34.82470000     -70.78680000
H      -47.02320000     -33.72270000     -70.62720000
H      -47.84770000     -35.03270000     -71.48040000
C      -45.75980000     -35.44820000     -71.19080000
H      -44.92420000     -35.00250000     -70.54140000
H      -45.81840000     -36.48210000     -71.20580000
C      -44.85480000     -31.81230000     -71.87540000
H      -45.32740000     -30.90680000     -71.98110000
H      -45.35100000     -32.33500000     -70.97890000
C      -45.01750000     -32.53600000     -73.18770000
C      -44.95470000     -31.79920000     -74.34300000
C      -45.31180000     -33.96090000     -73.47820000
H      -44.79310000     -30.72610000     -74.39930000
C      -45.30840000     -34.17520000     -74.87270000
C      -45.53160000     -35.17460000     -72.70740000
C      -45.64710000     -36.31780000     -73.57610000
S      -45.07470000     -32.71570000     -75.84340000
S      -45.39490000     -35.82610000     -75.23930000
H      -45.67750000     -37.32350000     -73.31130000
