40
Properties=species:S:1:pos:R:3 #=T CELL(abcABC):=T 1.889726e+02=T 90.00000=T Traj:=T positionsangstrom=T Step:=T 0=T Bead:=T pbc="F F F"
C      -46.75920000     -32.67720000     -67.31900000
C      -45.86860000     -33.56660000     -67.95050000
C      -44.64460000     -33.13120000     -68.37600000
C      -44.27360000     -31.86910000     -68.20700000
C      -45.14690000     -30.91690000     -67.61260000
C      -46.34740000     -31.34310000     -67.14270000
H      -47.81090000     -33.00140000     -67.06160000
H      -43.99030000     -33.87840000     -68.87140000
H      -44.78020000     -29.90330000     -67.53120000
H      -47.04080000     -30.60650000     -66.76030000
C      -43.00450000     -31.32790000     -68.66740000
H      -42.30210000     -32.19520000     -68.75770000
H      -42.66950000     -30.58660000     -67.92800000
C      -46.13580000     -35.04660000     -67.97600000
H      -45.37520000     -35.66000000     -68.38420000
H      -46.49980000     -35.51060000     -67.04100000
S      -43.11780000     -30.36350000     -70.21750000
S      -47.55930000     -35.59180000     -69.05340000
C      -43.53570000     -31.67350000     -71.48600000
H      -43.12510000     -31.45090000     -72.46670000
H      -42.94190000     -32.57650000     -71.19210000
C      -47.16690000     -35.03110000     -70.76400000
H      -47.25850000     -33.97670000     -71.02200000
H      -47.91200000     -35.55060000     -71.35840000
C      -45.69890000     -35.33410000     -71.31820000
H      -44.99300000     -34.64930000     -70.83230000
H      -45.44220000     -36.33780000     -70.89650000
C      -45.01880000     -32.02830000     -71.80770000
H      -45.55610000     -31.05210000     -71.84130000
H      -45.54380000     -32.66310000     -71.02290000
C      -45.18450000     -32.64320000     -73.19100000
C      -45.01580000     -31.85850000     -74.31230000
C      -45.44600000     -34.02590000     -73.54010000
H      -44.86400000     -30.79500000     -74.25000000
C      -45.31980000     -34.20420000     -74.97790000
C      -45.63590000     -35.21450000     -72.80550000
C      -45.66610000     -36.33990000     -73.64620000
S      -44.94180000     -32.71070000     -75.87860000
S      -45.52810000     -35.94850000     -75.36270000
H      -45.96560000     -37.30590000     -73.37770000
