40
Properties=species:S:1:pos:R:3 #=T CELL(abcABC):=T 1.889726e+02=T 90.00000=T Traj:=T positionsangstrom=T Step:=T 0=T Bead:=T pbc="F F F"
C      -45.42090000     -32.25610000     -67.45510000
C      -44.49960000     -31.71740000     -68.37330000
C      -44.99660000     -30.92500000     -69.35830000
C      -46.33390000     -30.52710000     -69.41610000
C      -47.24660000     -30.91800000     -68.39590000
C      -46.78440000     -31.88100000     -67.50550000
H      -45.00900000     -32.98940000     -66.72920000
H      -44.43010000     -30.45260000     -70.15310000
H      -48.31000000     -30.62650000     -68.45500000
H      -47.49730000     -32.17910000     -66.73690000
C      -46.65170000     -29.51820000     -70.46350000
H      -45.78890000     -28.89290000     -70.69520000
H      -47.44190000     -28.91070000     -70.12900000
C      -43.06300000     -32.13730000     -68.40300000
H      -42.48180000     -31.66180000     -69.22710000
H      -42.52660000     -31.90510000     -67.47750000
S      -47.35690000     -30.33130000     -71.97820000
S      -42.89210000     -34.04030000     -68.38710000
C      -46.29180000     -31.80510000     -72.27140000
H      -46.20150000     -31.85610000     -73.31030000
H      -45.32250000     -31.63120000     -71.88070000
C      -43.85260000     -34.59940000     -69.85540000
H      -44.90960000     -34.36500000     -69.55230000
H      -43.84400000     -35.73170000     -69.79820000
C      -43.35960000     -33.99010000     -71.14730000
H      -43.73640000     -32.96030000     -71.31450000
H      -42.27230000     -33.97510000     -71.17650000
C      -46.92040000     -33.16390000     -71.72960000
H      -47.95650000     -33.00140000     -71.65400000
H      -46.57460000     -33.29930000     -70.70820000
C      -46.52090000     -34.26720000     -72.73990000
C      -47.50000000     -34.82310000     -73.51710000
C      -45.18830000     -34.79670000     -73.05740000
H      -48.53490000     -34.48330000     -73.52450000
C      -45.19930000     -35.63460000     -74.18430000
C      -43.86710000     -34.76700000     -72.44280000
C      -42.98170000     -35.56650000     -73.15070000
S      -46.85780000     -35.94780000     -74.68040000
S      -43.71510000     -36.55670000     -74.42980000
H      -41.93080000     -35.67350000     -72.85480000
