40
Properties=species:S:1:pos:R:3 #=T CELL(abcABC):=T 1.889726e+02=T 90.00000=T Traj:=T positionsangstrom=T Step:=T 0=T Bead:=T pbc="F F F"
C      -46.79600000     -32.20460000     -67.36770000
C      -45.92950000     -33.19180000     -67.82860000
C      -44.62610000     -32.80880000     -68.28630000
C      -44.39650000     -31.47870000     -68.57750000
C      -45.28790000     -30.48940000     -68.15800000
C      -46.45510000     -30.86420000     -67.53750000
H      -47.79940000     -32.41440000     -66.96090000
H      -43.89420000     -33.55500000     -68.56290000
H      -45.07270000     -29.52550000     -68.49640000
H      -47.05330000     -29.97660000     -67.17390000
C      -43.03250000     -31.14970000     -69.12280000
H      -42.50670000     -32.16340000     -69.27630000
H      -42.47100000     -30.57940000     -68.38620000
C      -46.28870000     -34.64410000     -67.61710000
H      -45.50700000     -35.33320000     -67.92010000
H      -46.52990000     -34.91050000     -66.60650000
S      -42.80600000     -30.09270000     -70.72760000
S      -47.73560000     -35.15600000     -68.74590000
C      -43.28300000     -31.29510000     -72.05650000
H      -43.46020000     -30.71820000     -72.95680000
H      -42.42800000     -31.89420000     -72.34710000
C      -47.38360000     -34.69980000     -70.61940000
H      -47.55070000     -33.64820000     -70.65910000
H      -48.14240000     -35.23590000     -71.18870000
C      -46.00940000     -35.14300000     -70.96520000
H      -45.28410000     -34.51050000     -70.56980000
H      -45.82120000     -36.12590000     -70.56900000
C      -44.47060000     -32.25440000     -72.02370000
H      -45.30070000     -31.64690000     -71.68660000
H      -44.42970000     -33.01410000     -71.12690000
C      -44.71380000     -33.00270000     -73.35340000
C      -44.28520000     -32.62110000     -74.60740000
C      -45.36170000     -34.25890000     -73.44490000
H      -43.70830000     -31.76920000     -74.88840000
C      -45.43860000     -34.75270000     -74.75920000
C      -45.77530000     -35.26040000     -72.51440000
C      -46.11170000     -36.46990000     -73.09770000
S      -44.69800000     -33.68370000     -75.89030000
S      -46.01740000     -36.40360000     -74.79510000
H      -46.27920000     -37.29670000     -72.48370000
