40
Properties=species:S:1:pos:R:3 #=T CELL(abcABC):=T 1.889726e+02=T 90.00000=T Traj:=T positionsangstrom=T Step:=T 0=T Bead:=T pbc="F F F"
C      -45.55750000     -35.60920000     -67.28260000
C      -45.80700000     -34.26360000     -67.59320000
C      -46.89000000     -33.97290000     -68.44140000
C      -47.42630000     -34.98120000     -69.24830000
C      -47.05930000     -36.31570000     -68.98720000
C      -46.14520000     -36.59530000     -68.02270000
H      -44.76300000     -35.79730000     -66.65450000
H      -47.12900000     -32.94520000     -68.75550000
H      -47.37120000     -37.01740000     -69.70810000
H      -45.88780000     -37.61320000     -67.99680000
C      -48.44430000     -34.59960000     -70.23640000
H      -48.55880000     -33.55000000     -70.34710000
H      -49.35880000     -35.04900000     -69.87070000
C      -44.96890000     -33.13400000     -66.98920000
H      -45.56860000     -32.51290000     -66.36180000
H      -44.09220000     -33.50780000     -66.43130000
S      -48.10430000     -35.40280000     -71.94850000
S      -44.24130000     -32.08900000     -68.30140000
C      -47.19570000     -34.13150000     -72.88440000
H      -47.95570000     -33.79160000     -73.63970000
H      -46.95790000     -33.12300000     -72.38420000
C      -43.48250000     -33.40220000     -69.53860000
H      -43.60880000     -34.24820000     -68.81350000
H      -42.41240000     -33.07270000     -69.56920000
C      -44.27650000     -33.54760000     -70.84040000
H      -44.00830000     -34.53570000     -71.27520000
H      -45.33640000     -33.65370000     -70.67880000
C      -45.85650000     -34.70930000     -73.51080000
H      -46.09050000     -35.45740000     -74.27100000
H      -45.22830000     -35.18200000     -72.74490000
C      -45.10740000     -33.55390000     -74.14530000
C      -45.01110000     -33.26650000     -75.45710000
C      -44.47020000     -32.56150000     -73.25300000
H      -45.34230000     -33.98930000     -76.16020000
C      -43.93510000     -31.60990000     -74.10870000
C      -44.10280000     -32.44980000     -71.86750000
C      -43.41400000     -31.25200000     -71.66780000
S      -44.12390000     -31.81160000     -75.81220000
S      -43.18090000     -30.34480000     -73.15440000
H      -42.91200000     -30.94560000     -70.70780000
