40
Properties=species:S:1:pos:R:3 #=T CELL(abcABC):=T 1.889726e+02=T 90.00000=T Traj:=T positionsangstrom=T Step:=T 0=T Bead:=T pbc="F F F"
C      -47.08210000     -31.70800000     -68.11120000
C      -46.14660000     -32.74840000     -68.01850000
C      -44.83220000     -32.54020000     -68.32610000
C      -44.44510000     -31.28850000     -68.80520000
C      -45.36530000     -30.24130000     -68.88240000
C      -46.70890000     -30.48560000     -68.51150000
H      -48.15210000     -31.91390000     -67.84980000
H      -44.13050000     -33.29160000     -68.33700000
H      -45.22990000     -29.23320000     -69.14600000
H      -47.40280000     -29.57920000     -68.64770000
C      -43.04550000     -30.85900000     -69.09830000
H      -42.26130000     -31.61750000     -68.82910000
H      -42.78280000     -29.87990000     -68.58510000
C      -46.44290000     -34.15030000     -67.55460000
H      -45.49820000     -34.85370000     -67.57530000
H      -46.77330000     -34.19900000     -66.47910000
S      -42.83410000     -30.21650000     -70.86360000
S      -47.69430000     -35.12730000     -68.51140000
C      -42.96270000     -31.64950000     -71.96450000
H      -42.78180000     -31.16360000     -72.90470000
H      -42.24900000     -32.46230000     -71.88020000
C      -47.29670000     -34.66740000     -70.28880000
H      -47.26330000     -33.58900000     -70.37480000
H      -48.23530000     -34.91660000     -70.82500000
C      -46.01280000     -35.17960000     -70.83490000
H      -45.20630000     -34.53140000     -70.56480000
H      -45.62910000     -36.13060000     -70.31560000
C      -44.42850000     -32.26120000     -72.04770000
H      -45.07680000     -31.46200000     -72.14930000
H      -44.73170000     -32.61160000     -70.94550000
C      -44.74310000     -33.19070000     -73.17620000
C      -44.37680000     -32.73120000     -74.46310000
C      -45.22400000     -34.51470000     -73.17180000
H      -43.96800000     -31.74090000     -74.75980000
C      -45.15070000     -35.05590000     -74.49350000
C      -45.90030000     -35.42400000     -72.29020000
C      -46.24440000     -36.58450000     -72.94230000
S      -44.66840000     -33.88290000     -75.74840000
S      -45.74990000     -36.71590000     -74.62180000
H      -46.64360000     -37.44620000     -72.42050000
