40
Properties=species:S:1:pos:R:3 #=T CELL(abcABC):=T 1.889726e+02=T 90.00000=T Traj:=T positionsangstrom=T Step:=T 0=T Bead:=T pbc="F F F"
C      -47.07720000     -31.60470000     -68.24340000
C      -46.13850000     -32.61280000     -68.10140000
C      -44.81410000     -32.39720000     -68.40630000
C      -44.44680000     -31.13350000     -68.88230000
C      -45.39960000     -30.07210000     -68.88180000
C      -46.71800000     -30.29620000     -68.61290000
H      -48.14940000     -31.68730000     -68.09440000
H      -44.08630000     -33.18760000     -68.23850000
H      -45.03550000     -29.11920000     -69.18090000
H      -47.38420000     -29.42910000     -68.67520000
C      -43.04570000     -30.80480000     -69.25920000
H      -42.40700000     -31.66310000     -69.06200000
H      -42.75120000     -29.98560000     -68.59820000
C      -46.56470000     -33.97570000     -67.54660000
H      -45.63110000     -34.47700000     -67.24890000
H      -47.05900000     -33.82130000     -66.58810000
S      -42.75070000     -30.33280000     -71.00980000
S      -47.61090000     -35.04010000     -68.57050000
C      -43.09830000     -32.00630000     -71.76860000
H      -42.51950000     -32.14830000     -72.66790000
H      -42.80350000     -32.85510000     -71.07950000
C      -47.28620000     -34.76970000     -70.32690000
H      -47.29640000     -33.67470000     -70.47310000
H      -48.07050000     -35.31740000     -70.85470000
C      -45.90540000     -35.39570000     -70.73720000
H      -45.15340000     -34.90770000     -70.22930000
H      -45.97510000     -36.38700000     -70.37870000
C      -44.65820000     -32.24350000     -71.93450000
H      -45.28870000     -31.35090000     -72.15360000
H      -45.00880000     -32.79080000     -70.93670000
C      -44.81750000     -33.16690000     -73.18930000
C      -44.39480000     -32.70240000     -74.43810000
C      -45.33590000     -34.49460000     -73.23450000
H      -44.09570000     -31.69130000     -74.85470000
C      -45.28540000     -35.05930000     -74.50660000
C      -45.74580000     -35.47550000     -72.21650000
C      -45.96350000     -36.70570000     -72.74360000
S      -44.62250000     -33.95340000     -75.70250000
S      -45.82860000     -36.70510000     -74.47620000
H      -46.14610000     -37.63260000     -72.24860000
