40
Properties=species:S:1:pos:R:3 #=T CELL(abcABC):=T 1.889726e+02=T 90.00000=T Traj:=T positionsangstrom=T Step:=T 0=T Bead:=T pbc="F F F"
C      -47.02000000     -31.48870000     -68.11720000
C      -46.08730000     -32.50090000     -68.03210000
C      -44.75480000     -32.19840000     -68.39670000
C      -44.44420000     -30.93670000     -68.86240000
C      -45.43360000     -29.90460000     -68.93210000
C      -46.77350000     -30.20600000     -68.67670000
H      -48.06220000     -31.66880000     -67.86570000
H      -43.88960000     -32.85480000     -68.33580000
H      -45.18480000     -28.87690000     -69.26580000
H      -47.51900000     -29.49440000     -68.67770000
C      -43.01160000     -30.64960000     -69.16430000
H      -42.37230000     -31.54370000     -68.86890000
H      -42.65010000     -29.80030000     -68.63180000
C      -46.43910000     -33.86290000     -67.52760000
H      -45.57620000     -34.53830000     -67.46870000
H      -47.10690000     -33.82000000     -66.66230000
S      -42.74200000     -30.49280000     -71.00760000
S      -47.70420000     -34.83030000     -68.57280000
C      -43.18600000     -32.14410000     -71.61900000
H      -42.49750000     -32.28550000     -72.41990000
H      -42.84300000     -32.85840000     -70.86040000
C      -47.01150000     -34.70950000     -70.31610000
H      -46.98870000     -33.59570000     -70.43360000
H      -47.68850000     -35.00000000     -71.04520000
C      -45.54310000     -35.35050000     -70.68820000
H      -44.66200000     -34.58090000     -70.56690000
H      -45.36980000     -36.35440000     -70.19650000
C      -44.68180000     -32.35290000     -72.00570000
H      -45.08040000     -31.38650000     -72.29820000
H      -45.17130000     -32.72670000     -71.12230000
C      -44.80090000     -33.25100000     -73.22850000
C      -44.63080000     -32.79240000     -74.51920000
C      -45.22030000     -34.64560000     -73.20390000
H      -44.23090000     -31.84290000     -74.91880000
C      -45.34120000     -35.17210000     -74.48620000
C      -45.60870000     -35.64900000     -72.17510000
C      -45.97590000     -36.80580000     -72.76470000
S      -44.82250000     -34.03920000     -75.73460000
S      -45.87460000     -36.81600000     -74.55110000
H      -46.16370000     -37.74950000     -72.26220000
