40
Properties=species:S:1:pos:R:3 #=T CELL(abcABC):=T 1.889726e+02=T 90.00000=T Traj:=T positionsangstrom=T Step:=T 0=T Bead:=T pbc="F F F"
C      -47.02900000     -31.54750000     -68.15530000
C      -45.97700000     -32.44830000     -67.96520000
C      -44.67250000     -32.07270000     -68.32050000
C      -44.46460000     -30.75790000     -68.80530000
C      -45.51260000     -29.87470000     -68.91300000
C      -46.82270000     -30.28600000     -68.57820000
H      -48.01940000     -31.91730000     -68.00840000
H      -43.82080000     -32.74100000     -68.35900000
H      -45.31530000     -28.83220000     -69.33380000
H      -47.66510000     -29.63780000     -68.79610000
C      -43.05580000     -30.43880000     -69.24820000
H      -42.27890000     -31.02530000     -68.78150000
H      -42.81900000     -29.40420000     -68.99840000
C      -46.29630000     -33.86430000     -67.53640000
H      -45.30820000     -34.35760000     -67.47040000
H      -46.68920000     -33.95770000     -66.51510000
S      -42.72110000     -30.52710000     -71.02260000
S      -47.50230000     -34.71570000     -68.65740000
C      -43.25460000     -32.20610000     -71.67420000
H      -42.56610000     -32.50510000     -72.55580000
H      -43.13640000     -32.89840000     -70.88360000
C      -46.93590000     -34.41770000     -70.36450000
H      -46.68100000     -33.34180000     -70.46960000
H      -47.72700000     -34.62590000     -71.10010000
C      -45.68240000     -35.35060000     -70.69950000
H      -44.70820000     -34.90410000     -70.26140000
H      -45.93890000     -36.20070000     -70.15260000
C      -44.63470000     -32.25860000     -72.23080000
H      -44.82830000     -31.24590000     -72.69420000
H      -45.36430000     -32.29860000     -71.49780000
C      -44.79580000     -33.30920000     -73.31000000
C      -44.80330000     -32.82300000     -74.61420000
C      -45.12100000     -34.71540000     -73.12350000
H      -44.51340000     -31.86050000     -74.95290000
C      -45.27440000     -35.27480000     -74.40950000
C      -45.52870000     -35.70920000     -72.12800000
C      -45.97430000     -36.88650000     -72.65150000
S      -45.11800000     -34.18120000     -75.73430000
S      -45.82070000     -36.94610000     -74.41150000
H      -46.61050000     -37.64450000     -72.20500000
