40
Properties=species:S:1:pos:R:3 #=T CELL(abcABC):=T 1.889726e+02=T 90.00000=T Traj:=T positionsangstrom=T Step:=T 0=T Bead:=T pbc="F F F"
C      -47.03570000     -31.52060000     -68.16770000
C      -45.98080000     -32.45780000     -68.04970000
C      -44.64320000     -32.03410000     -68.33250000
C      -44.35850000     -30.77630000     -68.85530000
C      -45.44860000     -29.84660000     -68.94400000
C      -46.73860000     -30.22770000     -68.59190000
H      -48.04910000     -31.81350000     -67.86920000
H      -43.78870000     -32.73370000     -68.19730000
H      -45.18050000     -28.84570000     -69.30510000
H      -47.55890000     -29.44610000     -68.70960000
C      -42.99750000     -30.38650000     -69.24240000
H      -42.27950000     -30.94410000     -68.64140000
H      -42.95430000     -29.24140000     -69.07910000
C      -46.18540000     -33.86200000     -67.63040000
H      -45.21580000     -34.37580000     -67.77130000
H      -46.42690000     -33.98960000     -66.55830000
S      -42.78000000     -30.48170000     -71.06840000
S      -47.55200000     -34.66290000     -68.60790000
C      -43.23170000     -32.20810000     -71.65520000
H      -42.44120000     -32.55160000     -72.38930000
H      -43.09130000     -32.85280000     -70.80990000
C      -46.89020000     -34.52520000     -70.38240000
H      -46.67480000     -33.49210000     -70.42080000
H      -47.74530000     -34.83100000     -70.98610000
C      -45.56030000     -35.25080000     -70.58700000
H      -44.79350000     -34.64860000     -70.25900000
H      -45.51490000     -36.14920000     -70.06930000
C      -44.63460000     -32.30790000     -72.22570000
H      -45.07470000     -31.23320000     -72.39370000
H      -45.29790000     -32.62130000     -71.43640000
C      -44.94810000     -33.28070000     -73.41870000
C      -44.78830000     -32.92670000     -74.75870000
C      -45.36420000     -34.65590000     -73.21660000
H      -44.73180000     -31.92490000     -75.04040000
C      -45.63770000     -35.29990000     -74.47560000
C      -45.45400000     -35.58020000     -72.07900000
C      -45.65840000     -36.87070000     -72.50930000
S      -45.21630000     -34.24410000     -75.78900000
S      -45.75940000     -37.06490000     -74.25290000
H      -45.87600000     -37.71530000     -71.82430000
