40
Properties=species:S:1:pos:R:3 #=T CELL(abcABC):=T 1.889726e+02=T 90.00000=T Traj:=T positionsangstrom=T Step:=T 0=T Bead:=T pbc="F F F"
C      -46.95210000     -31.40890000     -68.14180000
C      -45.99640000     -32.42710000     -68.09440000
C      -44.68300000     -32.16800000     -68.48500000
C      -44.33880000     -30.90270000     -69.00410000
C      -45.31480000     -29.87990000     -69.04400000
C      -46.58230000     -30.11100000     -68.54200000
H      -47.96280000     -31.69820000     -67.81700000
H      -43.88130000     -32.88470000     -68.34910000
H      -44.99420000     -28.95740000     -69.45060000
H      -47.25440000     -29.27180000     -68.46520000
C      -42.92850000     -30.56550000     -69.42730000
H      -42.29010000     -31.35270000     -68.99520000
H      -42.47960000     -29.67400000     -69.03940000
C      -46.33770000     -33.82400000     -67.54410000
H      -45.51110000     -34.50550000     -67.33600000
H      -46.87440000     -33.66090000     -66.58150000
S      -42.79220000     -30.49300000     -71.29480000
S      -47.56860000     -34.77120000     -68.52330000
C      -43.35640000     -32.23020000     -71.85110000
H      -42.71660000     -32.40960000     -72.63230000
H      -43.15870000     -32.97510000     -71.01550000
C      -46.94560000     -34.57280000     -70.19550000
H      -47.19970000     -33.63790000     -70.69940000
H      -47.52880000     -35.31350000     -70.83630000
C      -45.52240000     -35.00550000     -70.56720000
H      -44.72240000     -34.19960000     -70.26830000
H      -45.21530000     -35.90760000     -69.84900000
C      -44.84880000     -32.12840000     -72.36120000
H      -44.94150000     -31.15830000     -72.77360000
H      -45.46070000     -32.28980000     -71.47780000
C      -45.09530000     -33.21920000     -73.38310000
C      -45.02400000     -32.86860000     -74.70230000
C      -45.12710000     -34.66770000     -73.13410000
H      -44.99730000     -31.80170000     -74.95790000
C      -45.28610000     -35.35450000     -74.32690000
C      -45.43300000     -35.52190000     -72.00000000
C      -45.75910000     -36.78800000     -72.39280000
S      -45.25450000     -34.26040000     -75.70280000
S      -45.69250000     -37.06990000     -74.15330000
H      -45.78720000     -37.67960000     -71.72530000
