40
Properties=species:S:1:pos:R:3 #=T CELL(abcABC):=T 1.889726e+02=T 90.00000=T Traj:=T positionsangstrom=T Step:=T 0=T Bead:=T pbc="F F F"
C      -46.84070000     -31.43080000     -68.15360000
C      -45.92970000     -32.46970000     -68.09000000
C      -44.67950000     -32.25050000     -68.61350000
C      -44.28560000     -30.96610000     -69.08820000
C      -45.17360000     -29.89400000     -69.14820000
C      -46.44360000     -30.12910000     -68.59350000
H      -47.87730000     -31.58260000     -67.79640000
H      -43.99500000     -33.10250000     -68.58790000
H      -44.87160000     -28.95530000     -69.58510000
H      -47.09920000     -29.30960000     -68.48840000
C      -42.85250000     -30.81770000     -69.57650000
H      -42.18380000     -31.71600000     -69.40170000
H      -42.34060000     -29.95790000     -69.22900000
C      -46.31580000     -33.74660000     -67.41360000
H      -45.42880000     -34.35040000     -67.19090000
H      -46.84530000     -33.52480000     -66.48370000
S      -42.74470000     -30.46570000     -71.40240000
S      -47.49330000     -34.80770000     -68.34360000
C      -43.38650000     -32.06360000     -72.09580000
H      -42.92080000     -32.19430000     -73.09440000
H      -43.12600000     -32.97130000     -71.48380000
C      -47.18790000     -34.58270000     -70.18790000
H      -47.32560000     -33.53400000     -70.48350000
H      -47.94760000     -35.18270000     -70.68730000
C      -45.77200000     -35.03830000     -70.45990000
H      -45.10270000     -34.28340000     -70.19090000
H      -45.57860000     -35.90740000     -69.85660000
C      -44.93400000     -32.07430000     -72.35800000
H      -45.37110000     -31.14610000     -72.60600000
H      -45.48230000     -32.46650000     -71.45870000
C      -45.27910000     -33.12190000     -73.42570000
C      -45.12490000     -32.86140000     -74.77170000
C      -45.39710000     -34.54270000     -73.11580000
H      -44.92570000     -31.82400000     -75.16570000
C      -45.29920000     -35.35480000     -74.20770000
C      -45.59110000     -35.37330000     -71.94740000
C      -45.57790000     -36.68780000     -72.27380000
S      -45.25470000     -34.38070000     -75.73200000
S      -45.57480000     -37.02780000     -74.04100000
H      -45.77660000     -37.43410000     -71.55830000
