40
Properties=species:S:1:pos:R:3 #=T CELL(abcABC):=T 1.889726e+02=T 90.00000=T Traj:=T positionsangstrom=T Step:=T 0=T Bead:=T pbc="F F F"
C      -46.63170000     -31.61560000     -68.14280000
C      -45.61110000     -32.54460000     -67.99150000
C      -44.37000000     -32.21960000     -68.58490000
C      -44.13520000     -31.00990000     -69.28170000
C      -45.14590000     -30.09070000     -69.33360000
C      -46.36870000     -30.36080000     -68.72930000
H      -47.66940000     -31.76050000     -67.90770000
H      -43.57020000     -32.87970000     -68.41670000
H      -45.00370000     -29.20930000     -69.91670000
H      -47.18600000     -29.64490000     -68.65610000
C      -42.80730000     -30.78910000     -69.92500000
H      -42.09030000     -31.63210000     -69.84260000
H      -42.34600000     -29.97890000     -69.50900000
C      -45.91350000     -33.86370000     -67.32210000
H      -45.05490000     -34.54590000     -67.28660000
H      -46.34360000     -33.78370000     -66.30870000
S      -42.86490000     -30.27630000     -71.68530000
S      -47.31820000     -34.81560000     -68.22770000
C      -43.45030000     -31.66940000     -72.62950000
H      -43.25880000     -31.49320000     -73.70190000
H      -42.95230000     -32.62730000     -72.44520000
C      -46.88830000     -34.42130000     -69.94450000
H      -47.20660000     -33.44860000     -70.25190000
H      -47.53850000     -35.17480000     -70.46970000
C      -45.45960000     -34.85320000     -70.34520000
H      -44.78820000     -34.02000000     -70.08610000
H      -45.19290000     -35.71570000     -69.77950000
C      -44.96650000     -32.01770000     -72.42570000
H      -45.55880000     -31.11440000     -72.70840000
H      -45.14650000     -32.26860000     -71.38330000
C      -45.32190000     -33.14210000     -73.39250000
C      -45.41570000     -32.97600000     -74.80720000
C      -45.46260000     -34.56080000     -73.04460000
H      -45.40350000     -32.07780000     -75.42080000
C      -45.78210000     -35.35300000     -74.16180000
C      -45.38500000     -35.32560000     -71.78510000
C      -45.57180000     -36.66480000     -72.01690000
S      -45.72870000     -34.51700000     -75.68560000
S      -45.74800000     -37.06250000     -73.72610000
H      -45.52700000     -37.53990000     -71.34530000
