40
Properties=species:S:1:pos:R:3 #=T CELL(abcABC):=T 1.889726e+02=T 90.00000=T Traj:=T positionsangstrom=T Step:=T 0=T Bead:=T pbc="F F F"
C      -46.23000000     -31.32240000     -68.02570000
C      -45.11480000     -32.19580000     -68.16430000
C      -44.03760000     -31.76730000     -68.99620000
C      -43.95110000     -30.42260000     -69.47580000
C      -44.93280000     -29.54650000     -69.04430000
C      -46.07350000     -30.00210000     -68.37370000
H      -47.06120000     -31.66810000     -67.38000000
H      -43.24970000     -32.48600000     -69.10340000
H      -44.98820000     -28.44020000     -69.21930000
H      -46.87610000     -29.27310000     -68.23410000
C      -42.80480000     -29.96650000     -70.31040000
H      -41.93510000     -30.51570000     -69.97940000
H      -42.64190000     -28.90260000     -70.20580000
C      -45.16510000     -33.58910000     -67.61040000
H      -44.33550000     -34.21810000     -67.94140000
H      -45.04720000     -33.58760000     -66.50280000
S      -42.96240000     -30.34020000     -72.18000000
S      -46.79900000     -34.37980000     -67.94230000
C      -43.38180000     -32.09850000     -72.23400000
H      -42.84830000     -32.46820000     -73.10730000
H      -42.95310000     -32.58260000     -71.34460000
C      -46.79490000     -34.33410000     -69.82960000
H      -46.47180000     -33.30850000     -70.08750000
H      -47.85250000     -34.58050000     -70.22260000
C      -45.71870000     -35.30080000     -70.34580000
H      -44.73170000     -34.85500000     -70.04430000
H      -45.76800000     -36.36020000     -69.81350000
C      -44.96080000     -32.48630000     -72.31220000
H      -45.49360000     -31.61000000     -72.65340000
H      -45.22920000     -32.83730000     -71.38170000
C      -45.28380000     -33.57890000     -73.27160000
C      -45.30110000     -33.34260000     -74.62630000
C      -45.78820000     -34.89110000     -72.94860000
H      -45.08640000     -32.44040000     -75.14110000
C      -46.01720000     -35.66900000     -74.10150000
C      -45.94790000     -35.72780000     -71.78820000
C      -46.26560000     -37.04220000     -72.08170000
S      -45.79190000     -34.76360000     -75.55950000
S      -46.53860000     -37.29530000     -73.82270000
H      -46.45900000     -37.67360000     -71.21790000
