40
Properties=species:S:1:pos:R:3 #=T CELL(abcABC):=T 1.889726e+02=T 90.00000=T Traj:=T positionsangstrom=T Step:=T 0=T Bead:=T pbc="F F F"
C      -46.02180000     -31.07190000     -67.75820000
C      -45.20950000     -32.17020000     -68.06510000
C      -44.18830000     -31.88290000     -69.03160000
C      -43.98810000     -30.60040000     -69.57220000
C      -44.97690000     -29.61130000     -69.39360000
C      -45.97900000     -29.89650000     -68.53540000
H      -46.91120000     -31.16130000     -67.14230000
H      -43.49750000     -32.62170000     -69.29210000
H      -44.85080000     -28.61010000     -69.75700000
H      -46.66270000     -29.08530000     -68.35150000
C      -42.69090000     -30.35290000     -70.30790000
H      -41.91120000     -31.17100000     -70.05260000
H      -42.19180000     -29.40740000     -70.13240000
C      -45.26290000     -33.51320000     -67.41190000
H      -44.43820000     -34.16830000     -67.63650000
H      -45.29650000     -33.46790000     -66.30080000
S      -43.02000000     -30.27640000     -72.06970000
S      -46.87890000     -34.51810000     -67.86050000
C      -43.43240000     -32.01410000     -72.56660000
H      -43.18350000     -32.12880000     -73.63240000
H      -42.70380000     -32.68820000     -72.04210000
C      -46.79960000     -34.65520000     -69.65620000
H      -47.00800000     -33.70710000     -70.09900000
H      -47.63060000     -35.24190000     -69.88350000
C      -45.52400000     -35.25090000     -70.30930000
H      -44.72640000     -34.60060000     -70.12870000
H      -45.21210000     -36.09430000     -69.68430000
C      -44.95330000     -32.42330000     -72.38170000
H      -45.64510000     -31.54300000     -72.43590000
H      -45.14020000     -32.73430000     -71.34680000
C      -45.25580000     -33.52330000     -73.33690000
C      -45.33000000     -33.27460000     -74.69890000
C      -45.66810000     -34.84240000     -72.96330000
H      -44.88660000     -32.45360000     -75.25380000
C      -45.96650000     -35.61460000     -74.11310000
C      -45.83740000     -35.68470000     -71.82100000
C      -46.38420000     -36.92970000     -72.08700000
S      -45.84420000     -34.72060000     -75.57590000
S      -46.47750000     -37.23060000     -73.79310000
H      -46.62280000     -37.63890000     -71.33970000
