40
Properties=species:S:1:pos:R:3 #=T CELL(abcABC):=T 1.889726e+02=T 90.00000=T Traj:=T positionsangstrom=T Step:=T 0=T Bead:=T pbc="F F F"
C      -45.91900000     -30.92430000     -68.19580000
C      -45.02710000     -32.03670000     -68.29810000
C      -43.84450000     -31.94440000     -69.00150000
C      -43.53800000     -30.75320000     -69.69080000
C      -44.46540000     -29.66950000     -69.72640000
C      -45.60630000     -29.76640000     -68.91050000
H      -46.85610000     -31.09230000     -67.60130000
H      -43.09440000     -32.72840000     -69.15960000
H      -44.24980000     -28.81720000     -70.30430000
H      -46.26860000     -28.91640000     -68.96720000
C      -42.24350000     -30.75560000     -70.48090000
H      -41.61360000     -31.58330000     -70.28590000
H      -41.53530000     -29.92250000     -70.28460000
C      -45.29580000     -33.20070000     -67.33900000
H      -44.42550000     -33.89310000     -67.17990000
H      -45.53360000     -32.73440000     -66.34700000
S      -42.57930000     -30.80940000     -72.25260000
S      -46.64900000     -34.31110000     -67.72390000
C      -43.42260000     -32.48810000     -72.62920000
H      -42.98470000     -32.72700000     -73.58590000
H      -43.15780000     -33.32270000     -71.94800000
C      -46.71260000     -34.36890000     -69.55090000
H      -46.93190000     -33.37070000     -69.94710000
H      -47.55380000     -35.02100000     -69.92070000
C      -45.43330000     -35.00680000     -70.26240000
H      -44.64600000     -34.30740000     -70.39770000
H      -45.12560000     -35.87450000     -69.69390000
C      -44.91920000     -32.28790000     -72.65410000
H      -45.14560000     -31.43800000     -73.30430000
H      -45.29540000     -32.08150000     -71.66110000
C      -45.59360000     -33.46080000     -73.37490000
C      -45.82950000     -33.30710000     -74.75690000
C      -45.98990000     -34.80220000     -72.89730000
H      -45.54600000     -32.44970000     -75.31650000
C      -46.59480000     -35.58880000     -73.93660000
C      -45.89810000     -35.49330000     -71.58730000
C      -46.20820000     -36.84450000     -71.74740000
S      -46.59850000     -34.66550000     -75.46260000
S      -46.80980000     -37.21050000     -73.40060000
H      -46.37120000     -37.56630000     -70.95620000
