40
Properties=species:S:1:pos:R:3 #=T CELL(abcABC):=T 1.889726e+02=T 90.00000=T Traj:=T positionsangstrom=T Step:=T 0=T Bead:=T pbc="F F F"
C      -44.64820000     -30.59600000     -68.20010000
C      -44.06130000     -31.76270000     -68.72130000
C      -43.28660000     -31.65970000     -69.83250000
C      -43.23800000     -30.50710000     -70.62830000
C      -43.96500000     -29.41610000     -70.22740000
C      -44.65840000     -29.44270000     -69.01990000
H      -45.06910000     -30.52890000     -67.22830000
H      -42.67980000     -32.53950000     -70.16640000
H      -43.82330000     -28.52070000     -70.91690000
H      -45.31100000     -28.64020000     -68.66370000
C      -42.41090000     -30.45980000     -71.90330000
H      -41.73820000     -31.30630000     -72.04760000
H      -41.76560000     -29.57690000     -72.02900000
C      -43.99710000     -33.09430000     -67.91490000
H      -43.33870000     -33.85240000     -68.33890000
H      -43.59260000     -32.85980000     -66.87270000
S      -43.61510000     -30.47970000     -73.36560000
S      -45.62800000     -33.82440000     -67.62710000
C      -43.91680000     -32.24010000     -73.57000000
H      -44.28710000     -32.38340000     -74.57950000
H      -42.97110000     -32.73650000     -73.73620000
C      -46.16990000     -34.17990000     -69.34590000
H      -46.26500000     -33.32390000     -70.00030000
H      -47.13000000     -34.60150000     -69.29650000
C      -45.27110000     -35.22230000     -69.92650000
H      -44.28050000     -34.76140000     -70.14480000
H      -45.01120000     -36.00260000     -69.19810000
C      -44.83130000     -32.96800000     -72.46650000
H      -45.27370000     -32.14920000     -71.84720000
H      -44.16740000     -33.52510000     -71.84370000
C      -45.92790000     -33.85110000     -72.94170000
C      -46.66140000     -33.61330000     -74.05700000
C      -46.24060000     -35.15120000     -72.41170000
H      -46.32660000     -32.93650000     -74.82150000
C      -47.13540000     -35.88390000     -73.14540000
C      -45.89060000     -35.84700000     -71.15240000
C      -46.48030000     -37.05460000     -71.12920000
S      -47.59390000     -35.09230000     -74.61750000
S      -47.42490000     -37.50280000     -72.48630000
H      -46.28830000     -37.70770000     -70.24840000
