40
Properties=species:S:1:pos:R:3 #=T CELL(abcABC):=T 1.889726e+02=T 90.00000=T Traj:=T positionsangstrom=T Step:=T 0=T Bead:=T pbc="F F F"
C      -48.74320000     -36.54630000     -70.10830000
C      -47.51320000     -36.25320000     -70.75440000
C      -46.34250000     -35.78270000     -70.06110000
C      -46.44430000     -35.54330000     -68.68080000
C      -47.69920000     -35.72340000     -68.09610000
C      -48.80700000     -36.24760000     -68.72860000
H      -49.54420000     -36.98690000     -70.60970000
H      -45.45420000     -35.59700000     -70.62880000
H      -47.81340000     -35.49980000     -67.02760000
H      -49.78090000     -36.30150000     -68.18100000
C      -45.31310000     -34.99520000     -67.86350000
H      -44.26660000     -35.29390000     -68.18820000
H      -45.31550000     -35.28200000     -66.83250000
C      -47.42340000     -36.59880000     -72.23160000
H      -46.41560000     -36.94980000     -72.62360000
H      -48.25040000     -37.28820000     -72.48780000
S      -45.35190000     -33.14720000     -67.73600000
S      -47.79680000     -35.07200000     -73.29950000
C      -45.23170000     -32.55470000     -69.49580000
H      -45.98390000     -32.98830000     -70.10500000
H      -45.57010000     -31.52130000     -69.41190000
C      -46.48700000     -33.85040000     -72.60460000
H      -46.62970000     -33.62650000     -71.54040000
H      -46.75260000     -32.91200000     -72.93720000
C      -45.01690000     -34.15690000     -72.93170000
H      -44.44110000     -34.62280000     -72.14660000
H      -44.92220000     -34.89860000     -73.82080000
C      -43.78500000     -32.78070000     -70.01140000
H      -43.75960000     -33.80780000     -70.37990000
H      -43.03540000     -32.70230000     -69.19910000
C      -43.35060000     -31.80370000     -71.07050000
C      -42.47670000     -30.80230000     -70.77230000
C      -43.72480000     -31.93830000     -72.45390000
H      -41.95230000     -30.58940000     -69.81280000
C      -43.35040000     -30.78760000     -73.11650000
C      -44.35360000     -32.88040000     -73.32700000
C      -44.40130000     -32.50050000     -74.62430000
S      -42.28070000     -29.75780000     -72.14880000
S      -43.65490000     -30.88070000     -74.80820000
H      -45.04950000     -32.93620000     -75.32730000
