40
Properties=species:S:1:pos:R:3 #=T CELL(abcABC):=T 1.889726e+02=T 90.00000=T Traj:=T positionsangstrom=T Step:=T 0=T Bead:=T pbc="F F F"
C      -45.80450000     -30.86490000     -68.41170000
C      -44.84650000     -31.92400000     -68.35920000
C      -43.64430000     -31.80950000     -69.09720000
C      -43.39270000     -30.75040000     -69.97210000
C      -44.41370000     -29.74350000     -70.15630000
C      -45.60330000     -29.81950000     -69.34420000
H      -46.60620000     -30.88860000     -67.69670000
H      -42.77400000     -32.45630000     -68.90830000
H      -44.23040000     -28.95790000     -70.88720000
H      -46.39500000     -29.07870000     -69.40290000
C      -42.10750000     -30.62720000     -70.71710000
H      -41.32340000     -31.25710000     -70.31800000
H      -41.69400000     -29.63230000     -70.73800000
C      -45.11070000     -33.10580000     -67.44650000
H      -44.22460000     -33.78130000     -67.37510000
H      -45.19770000     -32.88220000     -66.33320000
S      -42.23310000     -31.12250000     -72.50910000
S      -46.71990000     -34.08750000     -67.62060000
C      -43.09360000     -32.72450000     -72.32260000
H      -42.81410000     -33.33420000     -73.14390000
H      -42.75030000     -33.29530000     -71.47160000
C      -46.96620000     -34.19410000     -69.43030000
H      -46.93030000     -33.18660000     -69.84230000
H      -48.02110000     -34.47170000     -69.43240000
C      -46.03040000     -35.29420000     -70.01630000
H      -44.99030000     -35.12190000     -69.82830000
H      -46.31420000     -36.21730000     -69.51710000
C      -44.63290000     -32.58370000     -72.23860000
H      -45.17860000     -31.64010000     -72.44490000
H      -44.97250000     -32.71260000     -71.17780000
C      -45.34230000     -33.65110000     -73.11820000
C      -45.32880000     -33.50110000     -74.47790000
C      -46.14260000     -34.78860000     -72.69010000
H      -45.09990000     -32.52370000     -75.10470000
C      -46.65070000     -35.42310000     -73.84990000
C      -46.32780000     -35.58850000     -71.46480000
C      -46.92720000     -36.77920000     -71.73060000
S      -46.30280000     -34.68170000     -75.38200000
S      -47.43470000     -36.89550000     -73.47530000
H      -47.19880000     -37.42440000     -70.89280000
