40
Properties=species:S:1:pos:R:3 #=T CELL(abcABC):=T 1.889726e+02=T 90.00000=T Traj:=T positionsangstrom=T Step:=T 0=T Bead:=T pbc="F F F"
C      -45.98510000     -30.96460000     -68.67570000
C      -44.97200000     -31.78650000     -68.17590000
C      -43.71730000     -31.77280000     -68.77750000
C      -43.37370000     -30.82710000     -69.76070000
C      -44.36120000     -29.97920000     -70.21750000
C      -45.62670000     -29.99670000     -69.59130000
H      -46.85410000     -30.94570000     -68.07730000
H      -42.85530000     -32.28560000     -68.27220000
H      -44.06470000     -29.27730000     -70.99730000
H      -46.42510000     -29.30080000     -69.92160000
C      -42.04230000     -30.78670000     -70.41400000
H      -41.29250000     -31.54310000     -69.97110000
H      -41.53950000     -29.86320000     -70.21750000
C      -45.30530000     -32.83530000     -67.20420000
H      -44.43950000     -33.34080000     -66.88050000
H      -45.69420000     -32.60610000     -66.18300000
S      -42.06980000     -31.09140000     -72.32380000
S      -46.69810000     -33.99040000     -67.73010000
C      -43.02690000     -32.70450000     -72.59870000
H      -42.89920000     -32.82100000     -73.69810000
H      -42.39750000     -33.55900000     -72.17900000
C      -46.80700000     -34.09990000     -69.52580000
H      -46.41880000     -33.14120000     -69.88570000
H      -47.85510000     -34.13120000     -69.90950000
C      -45.97530000     -35.23870000     -70.12800000
H      -44.87670000     -34.93920000     -69.92880000
H      -46.15460000     -36.20260000     -69.55220000
C      -44.55150000     -32.81410000     -72.18410000
H      -44.95770000     -31.83400000     -72.24880000
H      -44.61390000     -33.05060000     -71.16710000
C      -45.23280000     -33.71890000     -73.16730000
C      -45.26870000     -33.56090000     -74.53220000
C      -46.02480000     -34.86460000     -72.82840000
H      -44.72570000     -32.88500000     -75.30000000
C      -46.71140000     -35.43420000     -73.90920000
C      -46.34410000     -35.56310000     -71.55610000
C      -47.09190000     -36.67660000     -71.72380000
S      -46.29370000     -34.69020000     -75.45280000
S      -47.64910000     -36.83810000     -73.40740000
H      -47.38410000     -37.38770000     -70.93160000
