40
Properties=species:S:1:pos:R:3 #=T CELL(abcABC):=T 1.889726e+02=T 90.00000=T Traj:=T positionsangstrom=T Step:=T 0=T Bead:=T pbc="F F F"
C      -45.99180000     -30.85690000     -68.62730000
C      -45.17750000     -31.92630000     -68.33260000
C      -43.88930000     -31.95830000     -68.87690000
C      -43.45010000     -31.04120000     -69.80440000
C      -44.24640000     -29.94830000     -70.14350000
C      -45.47110000     -29.83630000     -69.49520000
H      -46.97520000     -30.75330000     -68.16630000
H      -43.27420000     -32.82940000     -68.61260000
H      -43.79790000     -29.17490000     -70.64810000
H      -46.06290000     -28.92330000     -69.66060000
C      -42.08480000     -31.28350000     -70.36190000
H      -41.78970000     -32.27230000     -70.09750000
H      -41.21950000     -30.59000000     -69.99270000
C      -45.58480000     -32.96850000     -67.29340000
H      -44.71530000     -33.69890000     -67.07330000
H      -45.74520000     -32.50380000     -66.32810000
S      -41.79670000     -31.12120000     -72.24130000
S      -46.98790000     -34.03780000     -67.66330000
C      -42.90360000     -32.50960000     -72.90120000
H      -42.87430000     -32.29030000     -73.99000000
H      -42.39650000     -33.50690000     -72.76580000
C      -47.06420000     -34.18010000     -69.55560000
H      -47.14950000     -33.13120000     -69.84980000
H      -48.03300000     -34.67000000     -69.64400000
C      -45.94690000     -35.06290000     -70.17850000
H      -44.96280000     -34.46110000     -70.13260000
H      -45.70590000     -35.90180000     -69.48070000
C      -44.35510000     -32.54700000     -72.45450000
H      -44.75820000     -31.57820000     -72.63190000
H      -44.35750000     -32.61260000     -71.38010000
C      -45.18620000     -33.61700000     -73.21660000
C      -45.23980000     -33.48640000     -74.57990000
C      -46.01220000     -34.74490000     -72.75790000
H      -44.78900000     -32.70160000     -75.30870000
C      -46.65830000     -35.37120000     -73.81960000
C      -46.26450000     -35.50330000     -71.58220000
C      -47.13750000     -36.54780000     -71.69540000
S      -46.22200000     -34.72070000     -75.36130000
S      -47.59440000     -36.82660000     -73.33990000
H      -47.40330000     -37.25730000     -70.95110000
