40
Properties=species:S:1:pos:R:3 #=T CELL(abcABC):=T 1.889726e+02=T 90.00000=T Traj:=T positionsangstrom=T Step:=T 0=T Bead:=T pbc="F F F"
C      -45.67940000     -30.79370000     -68.39930000
C      -44.97890000     -31.98060000     -68.20470000
C      -43.75180000     -32.21100000     -68.86220000
C      -43.34790000     -31.24130000     -69.79110000
C      -44.12810000     -30.06110000     -70.08110000
C      -45.30280000     -29.80700000     -69.31080000
H      -46.63410000     -30.75200000     -67.85120000
H      -43.20270000     -33.18240000     -68.68240000
H      -43.66100000     -29.36030000     -70.79780000
H      -45.85700000     -28.88270000     -69.40000000
C      -41.92310000     -31.37970000     -70.30140000
H      -41.33720000     -32.22990000     -69.97680000
H      -41.28200000     -30.53070000     -70.03780000
C      -45.58850000     -33.07560000     -67.31920000
H      -44.87790000     -34.00460000     -67.19860000
H      -45.73080000     -32.80680000     -66.28880000
S      -41.83170000     -31.42100000     -72.18120000
S      -47.22010000     -33.62310000     -67.95470000
C      -43.01220000     -32.68080000     -72.81980000
H      -42.85200000     -32.49240000     -73.89310000
H      -42.57310000     -33.62570000     -72.54830000
C      -46.87870000     -33.74410000     -69.73880000
H      -46.60850000     -32.78980000     -70.04580000
H      -47.91740000     -33.85610000     -70.25530000
C      -46.03330000     -34.94630000     -70.14150000
H      -44.97490000     -34.65090000     -69.95210000
H      -46.26180000     -35.68110000     -69.42660000
C      -44.44800000     -32.61780000     -72.33190000
H      -44.74830000     -31.56820000     -72.29660000
H      -44.52140000     -32.88510000     -71.27120000
C      -45.31850000     -33.57340000     -73.23270000
C      -45.37870000     -33.41500000     -74.58990000
C      -46.04490000     -34.75550000     -72.76200000
H      -45.09230000     -32.58960000     -75.15740000
C      -46.66520000     -35.39720000     -73.85500000
C      -46.38090000     -35.41760000     -71.50100000
C      -47.22970000     -36.46310000     -71.69950000
S      -46.29390000     -34.71120000     -75.42820000
S      -47.47430000     -36.88290000     -73.33860000
H      -47.74040000     -37.09190000     -70.94060000
