40
Properties=species:S:1:pos:R:3 #=T CELL(abcABC):=T 1.889726e+02=T 90.00000=T Traj:=T positionsangstrom=T Step:=T 0=T Bead:=T pbc="F F F"
C      -45.36440000     -30.55960000     -68.29370000
C      -44.94620000     -31.87270000     -68.20070000
C      -43.75460000     -32.25150000     -68.92780000
C      -42.95580000     -31.26850000     -69.51960000
C      -43.30810000     -29.88000000     -69.42440000
C      -44.56670000     -29.60760000     -68.86990000
H      -46.23470000     -30.29710000     -67.75880000
H      -43.38450000     -33.25670000     -68.80480000
H      -42.77110000     -29.08700000     -69.84740000
H      -44.81340000     -28.58360000     -68.78210000
C      -41.73970000     -31.70960000     -70.25530000
H      -41.50280000     -32.74740000     -69.96250000
H      -40.79310000     -31.16130000     -70.23340000
C      -45.72660000     -32.88300000     -67.46440000
H      -45.04940000     -33.78170000     -67.39090000
H      -45.89580000     -32.63660000     -66.36750000
S      -42.03460000     -31.75530000     -72.14210000
S      -47.50720000     -33.27160000     -68.05270000
C      -43.30260000     -33.08100000     -72.28860000
H      -42.95670000     -33.77110000     -73.10150000
H      -43.30380000     -33.63130000     -71.38660000
C      -47.29170000     -33.68560000     -69.84910000
H      -47.19540000     -32.75320000     -70.48100000
H      -48.30310000     -34.00120000     -70.16000000
C      -46.05700000     -34.60580000     -70.27130000
H      -45.21100000     -33.93640000     -70.39470000
H      -45.86540000     -35.36150000     -69.55310000
C      -44.71250000     -32.51320000     -72.60410000
H      -44.54550000     -31.61480000     -73.22050000
H      -45.21480000     -32.05600000     -71.73430000
C      -45.53520000     -33.55950000     -73.42310000
C      -45.57400000     -33.50950000     -74.79470000
C      -46.17430000     -34.71930000     -72.94390000
H      -44.99350000     -32.83990000     -75.44110000
C      -46.51400000     -35.61420000     -73.95800000
C      -46.39210000     -35.23680000     -71.60740000
C      -47.13630000     -36.42280000     -71.67980000
S      -46.23120000     -34.91610000     -75.59930000
S      -47.45210000     -36.92570000     -73.33800000
H      -47.32800000     -37.04390000     -70.84480000
