40
Properties=species:S:1:pos:R:3 #=T CELL(abcABC):=T 1.889726e+02=T 90.00000=T Traj:=T positionsangstrom=T Step:=T 0=T Bead:=T pbc="F F F"
C      -44.72990000     -30.72580000     -67.82230000
C      -44.76900000     -32.06400000     -68.06490000
C      -43.69670000     -32.67540000     -68.72030000
C      -42.69570000     -31.91880000     -69.32310000
C      -42.72400000     -30.50810000     -69.10640000
C      -43.73620000     -29.90780000     -68.38370000
H      -45.44590000     -30.34070000     -67.16970000
H      -43.57210000     -33.79440000     -68.79780000
H      -41.96430000     -29.88450000     -69.45250000
H      -43.75540000     -28.86480000     -68.21220000
C      -41.63690000     -32.43350000     -70.22010000
H      -41.45600000     -33.53730000     -70.19030000
H      -40.68270000     -31.92080000     -69.92050000
C      -45.91420000     -32.87000000     -67.48550000
H      -45.49680000     -33.99520000     -67.46490000
H      -46.25810000     -32.49980000     -66.50340000
S      -42.01890000     -31.83080000     -71.93500000
S      -47.55700000     -32.69220000     -68.49890000
C      -43.32360000     -33.07010000     -72.36260000
H      -42.99730000     -33.71810000     -73.12870000
H      -43.41780000     -33.59220000     -71.40470000
C      -47.16300000     -33.30300000     -70.25110000
H      -46.68940000     -32.43960000     -70.80690000
H      -48.19250000     -33.49910000     -70.62860000
C      -46.18390000     -34.52410000     -70.36120000
H      -45.13500000     -34.17250000     -70.36630000
H      -46.25200000     -35.14830000     -69.52380000
C      -44.66180000     -32.43660000     -72.82190000
H      -44.56250000     -31.55340000     -73.47010000
H      -45.08980000     -32.07590000     -71.91780000
C      -45.54130000     -33.47700000     -73.56470000
C      -45.56940000     -33.53180000     -74.90620000
C      -46.33840000     -34.57200000     -73.03430000
H      -45.01500000     -32.86130000     -75.51380000
C      -46.99150000     -35.31540000     -73.97190000
C      -46.52150000     -35.19090000     -71.66240000
C      -47.19110000     -36.33840000     -71.76100000
S      -46.59370000     -34.80770000     -75.54300000
S      -47.73740000     -36.75980000     -73.36270000
H      -47.50950000     -36.99260000     -70.97940000
