40
Properties=species:S:1:pos:R:3 #=T CELL(abcABC):=T 1.889726e+02=T 90.00000=T Traj:=T positionsangstrom=T Step:=T 0=T Bead:=T pbc="F F F"
C      -44.28330000     -29.92350000     -69.72260000
C      -43.95520000     -31.19170000     -69.18920000
C      -42.96030000     -31.97610000     -69.82930000
C      -42.34720000     -31.43840000     -70.98930000
C      -42.58180000     -30.14000000     -71.43060000
C      -43.59360000     -29.41090000     -70.82960000
H      -45.13300000     -29.37750000     -69.23670000
H      -42.78540000     -32.93090000     -69.53500000
H      -42.13020000     -29.85040000     -72.35930000
H      -43.92920000     -28.35920000     -71.14420000
C      -41.51490000     -32.38650000     -71.92950000
H      -41.36760000     -33.35760000     -71.46310000
H      -40.51230000     -32.03670000     -72.22280000
C      -44.64400000     -31.59900000     -67.83620000
H      -44.00020000     -31.30250000     -67.02910000
H      -45.59400000     -31.03110000     -67.91550000
S      -42.44530000     -32.67860000     -73.56610000
S      -44.75060000     -33.36300000     -67.52060000
C      -43.77650000     -33.84440000     -73.05270000
H      -43.81120000     -34.69680000     -73.78190000
H      -43.61360000     -34.30870000     -72.06320000
C      -45.99040000     -33.95550000     -68.59850000
H      -46.73790000     -33.17360000     -68.70180000
H      -46.41870000     -34.92630000     -68.22330000
C      -45.45290000     -34.37740000     -69.96820000
H      -45.00940000     -33.63030000     -70.56560000
H      -44.68470000     -35.10410000     -69.80050000
C      -45.13160000     -32.94920000     -73.05200000
H      -45.02220000     -32.35540000     -74.03120000
H      -45.16110000     -32.34900000     -72.13130000
C      -46.34180000     -33.80730000     -73.17110000
C      -47.11500000     -33.70460000     -74.29410000
C      -46.85100000     -34.70980000     -72.21760000
H      -47.04920000     -33.02080000     -75.17320000
C      -47.97160000     -35.40240000     -72.71500000
C      -46.55750000     -35.06750000     -70.80970000
C      -47.33580000     -36.04370000     -70.27620000
S      -48.53220000     -34.76770000     -74.21090000
S      -48.64480000     -36.46550000     -71.47290000
H      -47.43350000     -36.37220000     -69.26130000
