40
Properties=species:S:1:pos:R:3 #=T CELL(abcABC):=T 1.889726e+02=T 90.00000=T Traj:=T positionsangstrom=T Step:=T 0=T Bead:=T pbc="F F F"
C      -46.91770000     -31.33070000     -69.47910000
C      -46.71690000     -30.63430000     -70.69170000
C      -47.30110000     -31.14150000     -71.88710000
C      -48.12060000     -32.30490000     -71.84500000
C      -48.22450000     -32.97370000     -70.65530000
C      -47.56190000     -32.58590000     -69.47990000
H      -46.46000000     -30.92400000     -68.64810000
H      -47.26670000     -30.57830000     -72.82740000
H      -48.87670000     -33.80860000     -70.50490000
H      -47.66340000     -33.12650000     -68.48880000
C      -48.86880000     -32.80020000     -73.05660000
H      -49.26890000     -32.00910000     -73.61150000
H      -49.59950000     -33.60870000     -72.79760000
C      -45.71680000     -29.54610000     -70.80980000
H      -45.77080000     -29.16430000     -71.79680000
H      -45.84790000     -28.66240000     -70.21330000
S      -47.67960000     -33.62880000     -74.18790000
S      -44.02390000     -29.99890000     -70.29370000
C      -46.73790000     -34.81430000     -73.06620000
H      -46.76600000     -34.45680000     -72.11150000
H      -47.38470000     -35.67090000     -73.14420000
C      -43.39710000     -30.95530000     -71.81400000
H      -42.27690000     -31.10920000     -71.68090000
H      -43.64330000     -30.33270000     -72.73650000
C      -44.07600000     -32.32410000     -72.00570000
H      -45.12930000     -32.09590000     -72.04550000
H      -43.87080000     -32.65110000     -73.00330000
C      -45.33860000     -34.90850000     -73.57490000
H      -44.93650000     -33.93010000     -73.68260000
H      -45.29470000     -35.46390000     -74.54200000
C      -44.60600000     -35.56890000     -72.40360000
C      -44.76430000     -36.90920000     -72.09130000
C      -43.94060000     -34.81220000     -71.35690000
H      -45.05520000     -37.82240000     -72.58840000
C      -43.48370000     -35.64890000     -70.34490000
C      -43.72680000     -33.44710000     -70.99750000
C      -43.04940000     -33.27280000     -69.83790000
S      -43.88080000     -37.34430000     -70.57430000
S      -42.62590000     -34.80120000     -69.05640000
H      -42.79350000     -32.27290000     -69.40730000
