40
Properties=species:S:1:pos:R:3 #=T CELL(abcABC):=T 1.889726e+02=T 90.00000=T Traj:=T positionsangstrom=T Step:=T 0=T Bead:=T pbc="F F F"
C      -44.97430000     -37.18080000     -71.29290000
C      -45.91190000     -36.62110000     -70.39700000
C      -45.39510000     -35.88580000     -69.33260000
C      -44.03510000     -35.55120000     -69.20120000
C      -43.16540000     -36.06020000     -70.14990000
C      -43.61990000     -36.87780000     -71.15500000
H      -45.34830000     -37.70270000     -72.18960000
H      -46.11650000     -35.45570000     -68.69510000
H      -42.08470000     -35.76780000     -70.10780000
H      -42.97570000     -37.34930000     -71.84610000
C      -43.49250000     -34.56870000     -68.21310000
H      -42.62670000     -34.93890000     -67.73000000
H      -44.23230000     -34.46690000     -67.35040000
C      -47.39590000     -36.98010000     -70.54430000
H      -47.50200000     -37.74150000     -71.21680000
H      -47.72890000     -37.35070000     -69.59120000
S      -43.12520000     -32.86010000     -68.88860000
S      -48.37070000     -35.60600000     -71.21670000
C      -44.70360000     -31.99030000     -68.64430000
H      -45.22960000     -32.38090000     -67.79690000
H      -44.47180000     -30.93030000     -68.41150000
C      -47.17910000     -34.52860000     -72.04600000
H      -46.99720000     -34.86290000     -73.06000000
H      -46.15060000     -34.59540000     -71.59480000
C      -47.73820000     -33.12450000     -72.18180000
H      -48.63610000     -33.29860000     -72.76170000
H      -48.10650000     -32.66250000     -71.25590000
C      -45.72090000     -32.04930000     -69.80560000
H      -46.66670000     -31.61620000     -69.46650000
H      -45.88580000     -33.08500000     -70.06190000
C      -45.24140000     -31.33390000     -71.00710000
C      -44.10340000     -30.48210000     -70.98630000
C      -45.71200000     -31.57210000     -72.37650000
H      -43.40340000     -30.12840000     -70.28830000
C      -44.93050000     -30.83600000     -73.31790000
C      -46.76200000     -32.25980000     -72.98930000
C      -46.69460000     -32.22480000     -74.36650000
S      -43.61450000     -29.95530000     -72.63810000
S      -45.45810000     -31.13480000     -74.93520000
H      -47.51040000     -32.54370000     -75.00920000
