40
Properties=species:S:1:pos:R:3 #=T CELL(abcABC):=T 1.889726e+02=T 90.00000=T Traj:=T positionsangstrom=T Step:=T 0=T Bead:=T pbc="F F F"
C      -44.04540000     -29.68600000     -69.47020000
C      -43.88070000     -30.97140000     -68.96960000
C      -43.04460000     -31.87950000     -69.72110000
C      -42.56580000     -31.51460000     -70.97700000
C      -42.59360000     -30.19070000     -71.43940000
C      -43.34490000     -29.25920000     -70.59660000
H      -44.70810000     -28.93920000     -68.92450000
H      -42.88900000     -32.95410000     -69.40090000
H      -42.07280000     -29.95530000     -72.42050000
H      -43.41660000     -28.21560000     -70.77830000
C      -41.86330000     -32.63200000     -71.75190000
H      -41.89620000     -33.59320000     -71.21250000
H      -40.83880000     -32.36110000     -71.80920000
C      -44.54140000     -31.49130000     -67.61430000
H      -43.79710000     -31.27940000     -66.78350000
H      -45.45410000     -31.06510000     -67.29820000
S      -42.40760000     -32.83600000     -73.57990000
S      -44.71560000     -33.28960000     -67.65270000
C      -43.87700000     -33.80770000     -73.38420000
H      -44.12040000     -34.26010000     -74.35200000
H      -43.55510000     -34.61130000     -72.62740000
C      -45.99800000     -33.59160000     -68.92280000
H      -46.27020000     -32.64660000     -69.42130000
H      -46.96540000     -33.92450000     -68.57860000
C      -45.53590000     -34.64680000     -69.93140000
H      -44.56660000     -34.39530000     -70.40770000
H      -45.14710000     -35.55010000     -69.38510000
C      -45.07020000     -33.04630000     -72.90700000
H      -45.01490000     -32.07170000     -73.45700000
H      -44.86460000     -32.70910000     -71.88410000
C      -46.33160000     -33.78520000     -73.07840000
C      -47.05640000     -33.59560000     -74.24060000
C      -46.95900000     -34.71190000     -72.20580000
H      -46.82010000     -32.94250000     -75.12660000
C      -48.05360000     -35.33680000     -72.70470000
C      -46.64070000     -35.16930000     -70.88260000
C      -47.38680000     -36.19400000     -70.45290000
S      -48.46810000     -34.73820000     -74.24730000
S      -48.66350000     -36.56930000     -71.57900000
H      -47.17080000     -36.65250000     -69.47010000
