40
Properties=species:S:1:pos:R:3 #=T CELL(abcABC):=T 1.889726e+02=T 90.00000=T Traj:=T positionsangstrom=T Step:=T 0=T Bead:=T pbc="F F F"
C      -43.89510000     -29.71300000     -69.45420000
C      -43.75510000     -31.02440000     -68.97720000
C      -43.11000000     -31.96280000     -69.83330000
C      -42.53980000     -31.59800000     -71.07020000
C      -42.67250000     -30.26050000     -71.61350000
C      -43.31960000     -29.37210000     -70.73220000
H      -44.37240000     -29.00780000     -68.80830000
H      -42.88650000     -32.98780000     -69.42760000
H      -42.27140000     -29.91490000     -72.57450000
H      -43.45640000     -28.38410000     -71.17050000
C      -41.71600000     -32.62730000     -71.86160000
H      -41.93510000     -33.66830000     -71.48660000
H      -40.60580000     -32.41450000     -71.76880000
C      -44.39840000     -31.41350000     -67.64740000
H      -43.61530000     -31.25110000     -66.89430000
H      -45.33840000     -30.80040000     -67.44800000
S      -42.33920000     -32.69740000     -73.55530000
S      -44.87120000     -33.19150000     -67.53870000
C      -43.96080000     -33.62590000     -73.47120000
H      -44.23630000     -33.71210000     -74.47070000
H      -43.81490000     -34.67150000     -73.16060000
C      -45.88690000     -33.59540000     -69.07810000
H      -45.72850000     -32.76290000     -69.79000000
H      -46.90590000     -33.70230000     -68.69330000
C      -45.55340000     -34.97090000     -69.78340000
H      -44.62990000     -34.96380000     -70.35630000
H      -45.54090000     -35.75020000     -69.04840000
C      -45.03230000     -32.98260000     -72.70030000
H      -45.24740000     -31.95600000     -73.05720000
H      -44.92830000     -32.85300000     -71.61280000
C      -46.26620000     -33.79540000     -72.94390000
C      -47.03060000     -33.59580000     -74.08310000
C      -46.90770000     -34.72270000     -72.06300000
H      -46.69050000     -32.97650000     -74.87930000
C      -48.02840000     -35.33080000     -72.65730000
C      -46.71860000     -35.31290000     -70.74680000
C      -47.60650000     -36.28410000     -70.45960000
S      -48.37630000     -34.69860000     -74.26980000
S      -48.80410000     -36.57900000     -71.69740000
H      -47.69480000     -36.75360000     -69.50310000
