40
Properties=species:S:1:pos:R:3 #=T CELL(abcABC):=T 1.889726e+02=T 90.00000=T Traj:=T positionsangstrom=T Step:=T 0=T Bead:=T pbc="F F F"
C      -43.77460000     -29.84070000     -69.51500000
C      -43.63910000     -31.18410000     -69.03910000
C      -42.89090000     -32.12720000     -69.80960000
C      -42.39240000     -31.71150000     -71.05770000
C      -42.67060000     -30.46380000     -71.59720000
C      -43.21230000     -29.46240000     -70.71060000
H      -44.26150000     -28.97240000     -68.99960000
H      -42.82290000     -33.12480000     -69.33750000
H      -42.19110000     -30.29060000     -72.62720000
H      -43.22490000     -28.41560000     -70.89290000
C      -41.70960000     -32.69780000     -71.87170000
H      -41.88940000     -33.68340000     -71.41090000
H      -40.66200000     -32.48290000     -71.89170000
C      -44.25620000     -31.57510000     -67.72960000
H      -43.51490000     -31.47990000     -66.89450000
H      -45.00480000     -30.84450000     -67.43500000
S      -42.17960000     -32.67440000     -73.69640000
S      -44.89170000     -33.34960000     -67.53000000
C      -43.72750000     -33.73080000     -73.57400000
H      -44.13520000     -34.06360000     -74.52150000
H      -43.45110000     -34.68280000     -73.15050000
C      -46.05660000     -33.54690000     -68.97500000
H      -45.84260000     -32.87980000     -69.81630000
H      -47.05990000     -33.38400000     -68.60010000
C      -45.83840000     -34.92870000     -69.56680000
H      -44.83930000     -34.89190000     -69.97620000
H      -45.88240000     -35.65490000     -68.75410000
C      -44.89790000     -33.10860000     -72.75180000
H      -45.00150000     -32.06760000     -72.99700000
H      -44.58680000     -33.05250000     -71.77890000
C      -46.17900000     -33.84960000     -73.00380000
C      -46.92450000     -33.66710000     -74.19910000
C      -46.94440000     -34.79640000     -72.10960000
H      -46.73660000     -32.93290000     -75.02810000
C      -48.09000000     -35.23150000     -72.64270000
C      -46.87040000     -35.24420000     -70.66020000
C      -47.84780000     -36.12920000     -70.37860000
S      -48.39150000     -34.56870000     -74.21710000
S      -49.12360000     -36.13370000     -71.63190000
H      -48.23860000     -36.42720000     -69.39380000
