40
Properties=species:S:1:pos:R:3 #=T CELL(abcABC):=T 1.889726e+02=T 90.00000=T Traj:=T positionsangstrom=T Step:=T 0=T Bead:=T pbc="F F F"
C      -44.99100000     -37.17960000     -71.42220000
C      -45.90250000     -36.68120000     -70.51090000
C      -45.36260000     -35.89310000     -69.47850000
C      -44.01880000     -35.65370000     -69.31060000
C      -43.12830000     -36.14560000     -70.30480000
C      -43.57610000     -37.01220000     -71.33070000
H      -45.44270000     -37.90100000     -72.12370000
H      -46.02460000     -35.56790000     -68.64390000
H      -42.04780000     -35.91600000     -70.23110000
H      -42.91410000     -37.55940000     -72.00940000
C      -43.52550000     -34.75540000     -68.17070000
H      -42.53510000     -35.08200000     -67.82350000
H      -44.23550000     -34.69200000     -67.40260000
C      -47.32600000     -37.06180000     -70.51040000
H      -47.60850000     -37.96140000     -71.07950000
H      -47.53170000     -37.21920000     -69.39430000
S      -43.22740000     -32.95920000     -68.81470000
S      -48.39010000     -35.68890000     -71.23560000
C      -44.82100000     -32.03470000     -68.47660000
H      -45.34340000     -32.49570000     -67.68540000
H      -44.46710000     -31.04520000     -68.07040000
C      -47.19520000     -34.51760000     -72.12640000
H      -46.75320000     -35.04360000     -73.04470000
H      -46.36700000     -34.38600000     -71.40830000
C      -47.81120000     -33.14710000     -72.37530000
H      -48.69790000     -33.14920000     -73.05590000
H      -48.01030000     -32.76900000     -71.37370000
C      -45.71370000     -31.91860000     -69.71730000
H      -46.62340000     -31.34920000     -69.42990000
H      -46.07430000     -32.88840000     -69.93520000
C      -45.21120000     -31.28240000     -70.97070000
C      -44.02860000     -30.48370000     -70.97890000
C      -45.72490000     -31.48360000     -72.30850000
H      -43.32130000     -30.16000000     -70.21500000
C      -44.93380000     -30.74940000     -73.23810000
C      -46.77660000     -32.20570000     -72.97700000
C      -46.73660000     -32.03300000     -74.32920000
S      -43.60680000     -29.83150000     -72.56790000
S      -45.34800000     -31.01190000     -74.87620000
H      -47.45640000     -32.42780000     -75.06370000
