40
Properties=species:S:1:pos:R:3 #=T CELL(abcABC):=T 1.889726e+02=T 90.00000=T Traj:=T positionsangstrom=T Step:=T 0=T Bead:=T pbc="F F F"
C      -45.38310000     -33.32110000     -75.12270000
C      -44.73320000     -32.99600000     -73.92520000
C      -44.79640000     -34.04850000     -72.88080000
C      -45.46460000     -35.28600000     -72.99390000
C      -46.16290000     -35.47560000     -74.22620000
C      -46.06100000     -34.53660000     -75.20850000
H      -45.59040000     -32.62370000     -75.83070000
H      -44.27090000     -33.90540000     -71.99710000
H      -46.74530000     -36.38410000     -74.30000000
H      -46.47120000     -34.75430000     -76.17560000
C      -45.78250000     -36.23350000     -71.86430000
H      -45.15610000     -36.02010000     -70.96200000
H      -45.62040000     -37.31870000     -72.18630000
C      -44.01230000     -31.71100000     -73.64950000
H      -43.43090000     -31.68080000     -72.71460000
H      -43.29570000     -31.43060000     -74.50000000
S      -47.62780000     -36.16420000     -71.29970000
S      -45.23690000     -30.25140000     -73.48760000
C      -47.84260000     -34.33810000     -71.11040000
H      -47.32830000     -33.79910000     -71.90990000
H      -48.96460000     -34.15890000     -71.31300000
C      -46.50240000     -31.02130000     -72.39860000
H      -46.77480000     -32.03970000     -72.78540000
H      -47.37600000     -30.39330000     -72.56790000
C      -46.11180000     -30.88120000     -70.86870000
H      -45.93450000     -29.80740000     -70.73260000
H      -46.98410000     -31.13330000     -70.31200000
C      -47.52780000     -33.67050000     -69.71280000
H      -48.34420000     -34.14520000     -69.09200000
H      -47.83440000     -32.59210000     -69.77380000
C      -46.09620000     -33.84010000     -69.24300000
C      -45.70520000     -34.89680000     -68.46450000
C      -45.00130000     -32.98300000     -69.53660000
H      -46.40730000     -35.64890000     -68.09510000
C      -43.74650000     -33.34230000     -68.97210000
C      -44.89810000     -31.73380000     -70.29980000
C      -43.61060000     -31.20600000     -70.16410000
S      -43.95360000     -34.74520000     -68.00190000
S      -42.49670000     -32.20790000     -69.29280000
H      -43.29400000     -30.29740000     -70.68020000
