40
Properties=species:S:1:pos:R:3 #=T CELL(abcABC):=T 1.889726e+02=T 90.00000=T Traj:=T positionsangstrom=T Step:=T 0=T Bead:=T pbc="F F F"
C      -44.89530000     -31.20190000     -68.02730000
C      -44.70960000     -32.60960000     -68.11330000
C      -43.70950000     -33.12430000     -68.92300000
C      -42.81590000     -32.22670000     -69.58850000
C      -43.11170000     -30.83130000     -69.54440000
C      -44.13580000     -30.29310000     -68.79650000
H      -45.76160000     -30.79250000     -67.48800000
H      -43.74270000     -34.24850000     -69.02490000
H      -42.49840000     -30.24970000     -70.27740000
H      -44.32320000     -29.26800000     -68.63420000
C      -41.53210000     -32.74320000     -70.12290000
H      -41.30530000     -33.81190000     -69.83900000
H      -40.71190000     -32.02560000     -69.69060000
C      -45.70610000     -33.50610000     -67.39580000
H      -45.49760000     -34.59810000     -67.56680000
H      -45.58980000     -33.08850000     -66.38480000
S      -41.29210000     -32.65580000     -71.99280000
S      -47.41770000     -33.11050000     -67.99150000
C      -42.84080000     -33.43360000     -72.58860000
H      -42.71280000     -33.39940000     -73.71710000
H      -42.95030000     -34.50610000     -72.38120000
C      -47.15350000     -33.28930000     -69.76480000
H      -46.45260000     -32.53360000     -70.05360000
H      -48.04490000     -32.98730000     -70.33580000
C      -46.78600000     -34.66680000     -70.25940000
H      -45.69460000     -34.89100000     -70.03870000
H      -47.34070000     -35.39560000     -69.72380000
C      -44.19920000     -32.84280000     -72.22980000
H      -44.24320000     -31.80590000     -72.15550000
H      -44.53460000     -33.29680000     -71.32120000
C      -45.20650000     -33.40880000     -73.15870000
C      -45.04880000     -33.21750000     -74.50940000
C      -46.39200000     -34.24420000     -72.91870000
H      -44.36460000     -32.51690000     -75.03740000
C      -47.00920000     -34.67050000     -74.14250000
C      -47.07430000     -34.85780000     -71.73640000
C      -48.29420000     -35.43950000     -72.06730000
S      -46.19920000     -34.02680000     -75.49910000
S      -48.49530000     -35.50200000     -73.84440000
H      -49.03090000     -35.99370000     -71.39420000
