40
Properties=species:S:1:pos:R:3 #=T CELL(abcABC):=T 1.889726e+02=T 90.00000=T Traj:=T positionsangstrom=T Step:=T 0=T Bead:=T pbc="F F F"
C      -44.83350000     -31.12760000     -68.27970000
C      -44.76780000     -32.55040000     -68.26290000
C      -43.57040000     -33.18020000     -68.74600000
C      -42.52930000     -32.41400000     -69.33920000
C      -42.67870000     -31.05110000     -69.35460000
C      -43.85120000     -30.43240000     -68.92380000
H      -45.72990000     -30.60980000     -67.98810000
H      -43.52460000     -34.26020000     -68.71500000
H      -41.90730000     -30.46880000     -69.75660000
H      -43.93410000     -29.38440000     -69.15410000
C      -41.36930000     -33.04240000     -70.02780000
H      -41.23300000     -34.18570000     -69.98080000
H      -40.45940000     -32.48160000     -69.75900000
C      -45.70730000     -33.32550000     -67.42990000
H      -45.40740000     -34.39280000     -67.48010000
H      -45.77110000     -33.08600000     -66.36530000
S      -41.47300000     -32.52570000     -71.81550000
S      -47.50500000     -33.12410000     -67.84900000
C      -42.90240000     -33.52390000     -72.37500000
H      -42.65740000     -34.04560000     -73.31760000
H      -43.11940000     -34.21900000     -71.54080000
C      -47.44880000     -33.09350000     -69.73510000
H      -47.11110000     -32.14150000     -70.15740000
H      -48.46710000     -33.31950000     -70.02450000
C      -46.49320000     -34.28650000     -70.30990000
H      -45.51230000     -33.92910000     -70.24100000
H      -46.56130000     -35.22220000     -69.71630000
C      -44.17850000     -32.70910000     -72.59220000
H      -43.81970000     -31.75920000     -73.08160000
H      -44.50610000     -32.37070000     -71.67910000
C      -45.22390000     -33.33120000     -73.49350000
C      -45.36220000     -33.06800000     -74.82410000
C      -46.27900000     -34.28600000     -73.06410000
H      -44.62510000     -32.51530000     -75.37500000
C      -47.06590000     -34.66550000     -74.10970000
C      -46.93980000     -34.68660000     -71.75320000
C      -48.01110000     -35.49980000     -72.00520000
S      -46.64610000     -34.01160000     -75.61650000
S      -48.36470000     -35.79490000     -73.75410000
H      -48.64070000     -35.85940000     -71.24890000
