40
Properties=species:S:1:pos:R:3 #=T CELL(abcABC):=T 1.889726e+02=T 90.00000=T Traj:=T positionsangstrom=T Step:=T 0=T Bead:=T pbc="F F F"
C      -43.82690000     -29.95960000     -70.28250000
C      -43.65500000     -31.05590000     -69.37240000
C      -42.79850000     -32.12160000     -69.74410000
C      -42.28310000     -32.15030000     -71.07050000
C      -42.59650000     -31.18410000     -72.00320000
C      -43.31430000     -30.01910000     -71.56350000
H      -44.38860000     -29.05240000     -69.92230000
H      -42.67730000     -33.02980000     -69.17110000
H      -42.23910000     -31.29230000     -73.03300000
H      -43.53080000     -29.17830000     -72.29640000
C      -41.26330000     -33.24010000     -71.52400000
H      -40.88010000     -33.82820000     -70.72280000
H      -40.46700000     -32.73720000     -71.95970000
C      -44.38590000     -31.02210000     -68.02110000
H      -43.52430000     -30.68440000     -67.30200000
H      -45.15800000     -30.26690000     -67.91850000
S      -41.86450000     -34.32090000     -72.93190000
S      -44.91320000     -32.74120000     -67.43020000
C      -43.68780000     -34.58300000     -72.52890000
H      -43.83890000     -35.62300000     -72.83990000
H      -43.81590000     -34.49450000     -71.48500000
C      -46.39850000     -33.07080000     -68.44920000
H      -47.01920000     -32.17570000     -68.35630000
H      -46.88340000     -33.93150000     -68.01700000
C      -46.15240000     -33.29150000     -69.95980000
H      -45.61790000     -32.44200000     -70.40520000
H      -45.48790000     -34.10890000     -69.99910000
C      -44.66670000     -33.65150000     -73.28510000
H      -44.27790000     -33.58480000     -74.29810000
H      -44.71340000     -32.68990000     -72.83960000
C      -46.01870000     -34.29750000     -73.25780000
C      -46.36430000     -34.87270000     -74.40740000
C      -47.05340000     -34.28030000     -72.22720000
H      -45.80270000     -34.83210000     -75.30870000
C      -48.19280000     -34.92280000     -72.61260000
C      -47.26970000     -33.69940000     -70.87880000
C      -48.51490000     -33.93400000     -70.37880000
S      -48.07930000     -35.57920000     -74.28570000
S      -49.54230000     -34.86210000     -71.48450000
H      -48.77200000     -33.76920000     -69.34030000
