40
Properties=species:S:1:pos:R:3 #=T CELL(abcABC):=T 1.889726e+02=T 90.00000=T Traj:=T positionsangstrom=T Step:=T 0=T Bead:=T pbc="F F F"
C      -43.70760000     -35.14060000     -74.45940000
C      -43.53110000     -36.01700000     -73.34550000
C      -42.79500000     -35.58580000     -72.26450000
C      -41.99560000     -34.41420000     -72.31940000
C      -42.07440000     -33.57230000     -73.43840000
C      -43.01460000     -33.91440000     -74.46350000
H      -44.37880000     -35.44950000     -75.20300000
H      -42.79610000     -36.22930000     -71.33520000
H      -41.61550000     -32.56060000     -73.48640000
H      -43.21170000     -33.25620000     -75.41090000
C      -41.26700000     -33.88770000     -71.09710000
H      -40.79530000     -32.95640000     -71.29490000
H      -40.47050000     -34.55040000     -70.77040000
C      -44.39790000     -37.23540000     -73.22840000
H      -44.73520000     -37.68800000     -74.11870000
H      -43.76910000     -37.84430000     -72.58340000
S      -42.47920000     -33.97280000     -69.62460000
S      -46.01290000     -36.75390000     -72.24040000
C      -43.67500000     -32.61120000     -70.06150000
H      -43.10600000     -31.69840000     -70.36030000
H      -44.02550000     -32.88180000     -71.01190000
C      -45.81230000     -35.06200000     -71.52870000
H      -45.63200000     -34.28120000     -72.30960000
H      -45.00610000     -34.99190000     -70.84400000
C      -47.13180000     -34.65950000     -70.82810000
H      -47.92140000     -35.23020000     -71.39020000
H      -46.96560000     -34.95000000     -69.79050000
C      -44.72530000     -32.44870000     -69.00940000
H      -44.27120000     -32.06690000     -68.10840000
H      -45.15020000     -33.41830000     -68.64870000
C      -45.80730000     -31.55990000     -69.60270000
C      -45.67050000     -30.15830000     -69.44140000
C      -46.97230000     -31.97090000     -70.25970000
H      -44.97500000     -29.61400000     -68.76180000
C      -47.78810000     -30.89020000     -70.59220000
C      -47.63340000     -33.24960000     -70.87850000
C      -48.82320000     -33.05230000     -71.50730000
S      -47.26930000     -29.36240000     -69.94740000
S      -49.26910000     -31.33280000     -71.40550000
H      -49.50170000     -33.82520000     -71.96050000
