40
Properties=species:S:1:pos:R:3 #=T CELL(abcABC):=T 1.889726e+02=T 90.00000=T Traj:=T positionsangstrom=T Step:=T 0=T Bead:=T pbc="F F F"
C      -44.88900000     -36.72610000     -72.50920000
C      -45.10210000     -36.88310000     -71.14820000
C      -46.40990000     -36.47600000     -70.66620000
C      -47.45620000     -36.03750000     -71.45680000
C      -47.23350000     -36.11960000     -72.85970000
C      -45.94550000     -36.42010000     -73.36810000
H      -43.96840000     -37.08380000     -72.89460000
H      -46.54810000     -36.63380000     -69.64510000
H      -48.03710000     -35.85660000     -73.56310000
H      -45.75790000     -36.54970000     -74.52100000
C      -48.77700000     -35.51610000     -70.91210000
H      -49.31180000     -36.20890000     -70.27170000
H      -49.36170000     -35.32780000     -71.87600000
C      -43.92990000     -37.29850000     -70.31730000
H      -44.29320000     -38.11500000     -69.57990000
H      -43.21480000     -37.81880000     -70.99860000
S      -48.61690000     -34.05630000     -69.75000000
S      -43.14540000     -35.87560000     -69.50250000
C      -47.65300000     -32.90620000     -70.79700000
H      -47.14680000     -33.49820000     -71.52450000
H      -48.28780000     -32.19310000     -71.39470000
C      -42.69270000     -34.54790000     -70.67390000
H      -42.32070000     -34.97520000     -71.59300000
H      -41.83570000     -34.09010000     -70.18540000
C      -43.83650000     -33.58910000     -70.78670000
H      -44.58300000     -34.20240000     -71.44820000
H      -44.33180000     -33.49570000     -69.78490000
C      -46.70870000     -31.97530000     -70.05800000
H      -45.98010000     -32.54430000     -69.52530000
H      -47.21470000     -31.40410000     -69.22310000
C      -46.00690000     -31.05790000     -71.03410000
C      -46.64350000     -29.88070000     -71.47100000
C      -44.67620000     -31.26100000     -71.50390000
H      -47.52720000     -29.42700000     -71.04870000
C      -44.31510000     -30.16580000     -72.27120000
C      -43.65820000     -32.23040000     -71.46090000
C      -42.49580000     -31.79740000     -72.03510000
S      -45.55980000     -28.94430000     -72.46360000
S      -42.63810000     -30.24070000     -72.81440000
H      -41.59630000     -32.35570000     -72.26510000
