40
Properties=species:S:1:pos:R:3 #=T CELL(abcABC):=T 1.889726e+02=T 90.00000=T Traj:=T positionsangstrom=T Step:=T 0=T Bead:=T pbc="F F F"
C      -44.95890000     -36.38020000     -72.78260000
C      -45.07780000     -36.77460000     -71.40250000
C      -46.24500000     -36.42550000     -70.75980000
C      -47.37700000     -35.96380000     -71.45790000
C      -47.30290000     -35.81530000     -72.83660000
C      -46.14760000     -36.04510000     -73.54860000
H      -44.00200000     -36.51560000     -73.29980000
H      -46.39130000     -36.54520000     -69.65070000
H      -48.15200000     -35.37270000     -73.33980000
H      -46.20500000     -35.94990000     -74.60420000
C      -48.63040000     -35.45330000     -70.80880000
H      -49.22370000     -36.20600000     -70.28020000
H      -49.31870000     -35.04650000     -71.57140000
C      -43.95550000     -37.30810000     -70.61510000
H      -44.13760000     -38.15170000     -69.97770000
H      -43.07680000     -37.52440000     -71.28690000
S      -48.45360000     -33.95880000     -69.70300000
S      -43.40530000     -36.07620000     -69.34400000
C      -47.67120000     -32.88380000     -70.91530000
H      -46.97330000     -33.55450000     -71.46220000
H      -48.34230000     -32.55050000     -71.69480000
C      -43.17580000     -34.62720000     -70.39830000
H      -43.20100000     -34.93020000     -71.45290000
H      -42.15600000     -34.26650000     -70.26030000
C      -44.13340000     -33.47970000     -70.17210000
H      -45.12670000     -33.89540000     -70.35040000
H      -44.12150000     -33.06960000     -69.15620000
C      -47.06560000     -31.61200000     -70.21250000
H      -46.48830000     -31.90400000     -69.25460000
H      -47.93770000     -30.97010000     -69.93300000
C      -46.11150000     -30.86150000     -71.13160000
C      -46.40810000     -29.63450000     -71.66970000
C      -44.71340000     -31.21760000     -71.42530000
H      -47.34540000     -29.03670000     -71.71460000
C      -44.05320000     -30.31610000     -72.22810000
C      -43.82740000     -32.30160000     -71.16880000
C      -42.66740000     -32.27020000     -71.86200000
S      -45.11020000     -28.95360000     -72.67830000
S      -42.49980000     -30.80470000     -72.78540000
H      -41.72600000     -32.86270000     -71.88630000
