40
Properties=species:S:1:pos:R:3 #=T CELL(abcABC):=T 1.889726e+02=T 90.00000=T Traj:=T positionsangstrom=T Step:=T 0=T Bead:=T pbc="F F F"
C      -45.11350000     -36.47750000     -72.82210000
C      -45.19050000     -36.68420000     -71.44310000
C      -46.38780000     -36.31130000     -70.79620000
C      -47.41440000     -35.75550000     -71.50180000
C      -47.36460000     -35.65010000     -72.89010000
C      -46.17020000     -35.98400000     -73.54040000
H      -44.21380000     -36.68960000     -73.34690000
H      -46.39790000     -36.46230000     -69.76540000
H      -48.24210000     -35.50840000     -73.47910000
H      -45.97770000     -35.77230000     -74.53400000
C      -48.65310000     -35.31680000     -70.64290000
H      -48.91390000     -36.09950000     -69.94580000
H      -49.53790000     -35.12430000     -71.30360000
C      -43.95770000     -37.20960000     -70.76760000
H      -44.11660000     -38.25410000     -70.46720000
H      -43.04840000     -37.18950000     -71.31800000
S      -48.31180000     -33.87410000     -69.56970000
S      -43.63930000     -36.23610000     -69.23280000
C      -47.64860000     -32.67900000     -70.86400000
H      -46.92940000     -33.13450000     -71.49850000
H      -48.54830000     -32.46620000     -71.47330000
C      -43.17940000     -34.54720000     -69.88450000
H      -42.68180000     -34.77290000     -70.85020000
H      -42.47540000     -33.94240000     -69.22730000
C      -44.30380000     -33.59560000     -70.34760000
H      -44.97950000     -34.02230000     -71.07490000
H      -44.85130000     -33.24320000     -69.49690000
C      -46.99370000     -31.47430000     -70.28090000
H      -46.48530000     -31.73550000     -69.31870000
H      -47.84810000     -30.76610000     -69.98460000
C      -45.99100000     -30.87380000     -71.22310000
C      -46.34710000     -29.71600000     -71.90690000
C      -44.65960000     -31.28400000     -71.53160000
H      -47.30480000     -29.23480000     -71.80790000
C      -44.01920000     -30.40120000     -72.39910000
C      -43.76650000     -32.38610000     -71.15600000
C      -42.54450000     -32.35760000     -71.73440000
S      -45.04460000     -29.10280000     -72.87130000
S      -42.38880000     -30.85440000     -72.72970000
H      -41.88010000     -33.15670000     -71.68650000
