40
Properties=species:S:1:pos:R:3 #=T CELL(abcABC):=T 1.889726e+02=T 90.00000=T Traj:=T positionsangstrom=T Step:=T 0=T Bead:=T pbc="F F F"
C      -45.24110000     -35.03450000     -67.60290000
C      -45.87800000     -33.81700000     -67.88610000
C      -47.02270000     -33.82580000     -68.67710000
C      -47.53150000     -34.95520000     -69.35200000
C      -46.95120000     -36.16790000     -69.01140000
C      -45.77650000     -36.24580000     -68.15590000
H      -44.29260000     -35.12060000     -66.99520000
H      -47.60030000     -32.89530000     -68.60940000
H      -47.31210000     -37.09190000     -69.40590000
H      -45.33080000     -37.18900000     -67.97760000
C      -48.75090000     -34.83560000     -70.20560000
H      -49.14500000     -33.79780000     -70.28220000
H      -49.51230000     -35.37080000     -69.62770000
C      -45.46380000     -32.46140000     -67.51590000
H      -46.36660000     -31.84350000     -67.41750000
H      -44.87020000     -32.45100000     -66.64400000
S      -48.61750000     -35.42490000     -71.91750000
S      -44.47450000     -31.71840000     -68.90660000
C      -47.56190000     -34.21610000     -72.85940000
H      -47.99490000     -33.97910000     -73.81800000
H      -47.61980000     -33.27290000     -72.25470000
C      -43.39970000     -33.14600000     -69.25710000
H      -43.42230000     -33.88020000     -68.41780000
H      -42.38490000     -32.76900000     -69.29910000
C      -43.67730000     -33.77770000     -70.72480000
H      -42.98940000     -34.54430000     -70.97350000
H      -44.65540000     -34.22500000     -70.69260000
C      -46.14750000     -34.64500000     -72.98360000
H      -45.99190000     -35.57440000     -73.47210000
H      -45.70740000     -34.63650000     -71.97610000
C      -45.25290000     -33.59310000     -73.67150000
C      -45.53240000     -33.23050000     -74.93950000
C      -44.20180000     -32.86140000     -73.04650000
H      -46.42280000     -33.55790000     -75.50990000
C      -43.71320000     -31.91450000     -73.98490000
C      -43.44180000     -32.77840000     -71.79660000
C      -42.50650000     -31.74590000     -71.76260000
S      -44.58440000     -31.93340000     -75.41770000
S      -42.35880000     -30.90860000     -73.27860000
H      -41.82550000     -31.45410000     -70.97170000
