40
Properties=species:S:1:pos:R:3 #=T CELL(abcABC):=T 1.889726e+02=T 90.00000=T Traj:=T positionsangstrom=T Step:=T 0=T Bead:=T pbc="F F F"
C      -46.58160000     -32.66360000     -74.72240000
C      -45.82810000     -32.20020000     -73.64580000
C      -44.99600000     -33.14940000     -72.97810000
C      -44.78210000     -34.39080000     -73.60110000
C      -45.48830000     -34.79490000     -74.72810000
C      -46.44110000     -33.92710000     -75.27130000
H      -47.26560000     -31.96790000     -75.20870000
H      -44.45150000     -32.94240000     -72.06820000
H      -45.25180000     -35.72100000     -75.25370000
H      -46.97930000     -34.12490000     -76.22150000
C      -43.89630000     -35.45690000     -72.96850000
H      -43.18610000     -35.16340000     -72.17810000
H      -43.35460000     -35.94170000     -73.79900000
C      -46.10370000     -30.79680000     -73.15860000
H      -45.27780000     -30.44180000     -72.60130000
H      -46.30880000     -30.03190000     -73.92710000
S      -45.05240000     -36.78970000     -72.26200000
S      -47.60120000     -30.65660000     -72.04700000
C      -46.36960000     -35.95530000     -71.30540000
H      -46.67160000     -35.00500000     -71.77920000
H      -47.24870000     -36.58650000     -71.36370000
C      -47.78790000     -32.35520000     -71.31200000
H      -47.10230000     -32.96600000     -71.82800000
H      -48.83430000     -32.67180000     -71.60390000
C      -47.50260000     -32.47200000     -69.78570000
H      -48.17010000     -31.78780000     -69.29470000
H      -47.78470000     -33.52100000     -69.56640000
C      -46.09740000     -35.67170000     -69.84030000
H      -46.00540000     -36.62860000     -69.31350000
H      -46.98500000     -35.17520000     -69.40430000
C      -44.91410000     -34.78980000     -69.52890000
C      -43.62820000     -35.22560000     -69.48590000
C      -44.99410000     -33.29360000     -69.34360000
H      -43.29840000     -36.25180000     -69.74450000
C      -43.77370000     -32.77030000     -69.07840000
C      -46.00400000     -32.30400000     -69.48270000
C      -45.46310000     -31.03160000     -69.37680000
S      -42.45860000     -33.98020000     -69.14060000
S      -43.74090000     -31.01880000     -69.05990000
H      -45.88140000     -29.99660000     -69.42700000
