40
Properties=species:S:1:pos:R:3 #=T CELL(abcABC):=T 1.889726e+02=T 90.00000=T Traj:=T positionsangstrom=T Step:=T 0=T Bead:=T pbc="F F F"
C      -46.78750000     -32.63360000     -74.81120000
C      -46.01940000     -32.23650000     -73.66880000
C      -45.02900000     -33.15770000     -73.23760000
C      -44.94460000     -34.47510000     -73.70450000
C      -45.66870000     -34.80550000     -74.87510000
C      -46.48010000     -33.82060000     -75.44700000
H      -47.49900000     -32.04250000     -75.23350000
H      -44.47210000     -32.88590000     -72.42450000
H      -45.57770000     -35.77170000     -75.35970000
H      -47.15940000     -34.12850000     -76.20650000
C      -44.07990000     -35.41610000     -72.98500000
H      -43.62150000     -34.90790000     -72.13120000
H      -43.20500000     -35.72780000     -73.55610000
C      -46.09240000     -30.88240000     -72.96740000
H      -45.18780000     -30.84170000     -72.32190000
H      -46.03690000     -30.00710000     -73.64250000
S      -44.89180000     -36.90420000     -72.28280000
S      -47.67190000     -30.82310000     -71.95790000
C      -46.24400000     -36.03680000     -71.36550000
H      -46.43900000     -35.10340000     -71.89270000
H      -47.07980000     -36.78500000     -71.44530000
C      -47.94890000     -32.44890000     -71.17230000
H      -47.60310000     -33.19620000     -71.83210000
H      -49.11040000     -32.57780000     -71.21390000
C      -47.47540000     -32.51860000     -69.71670000
H      -48.07910000     -31.80620000     -69.17730000
H      -47.68940000     -33.52300000     -69.20380000
C      -45.91610000     -35.68080000     -69.88540000
H      -45.60970000     -36.59040000     -69.36110000
H      -46.80130000     -35.35940000     -69.32800000
C      -44.82120000     -34.71190000     -69.66570000
C      -43.55360000     -35.12560000     -69.38000000
C      -44.90900000     -33.18420000     -69.56760000
H      -43.32700000     -36.20950000     -69.38970000
C      -43.65800000     -32.63450000     -69.31800000
C      -46.00550000     -32.20670000     -69.55010000
C      -45.49260000     -30.98200000     -69.13870000
S      -42.38370000     -33.84670000     -69.09300000
S      -43.71470000     -30.96430000     -68.91650000
H      -45.98570000     -29.97670000     -69.06500000
