40
Properties=species:S:1:pos:R:3 #=T CELL(abcABC):=T 1.889726e+02=T 90.00000=T Traj:=T positionsangstrom=T Step:=T 0=T Bead:=T pbc="F F F"
C      -44.33390000     -31.30290000     -67.75820000
C      -44.52290000     -32.68200000     -67.99290000
C      -43.47890000     -33.28930000     -68.65170000
C      -42.32340000     -32.66110000     -69.11830000
C      -42.22470000     -31.27560000     -68.92230000
C      -43.22460000     -30.58810000     -68.25740000
H      -45.10360000     -30.80400000     -67.17130000
H      -43.48230000     -34.32870000     -68.84270000
H      -41.33880000     -30.72100000     -69.24760000
H      -43.10580000     -29.51220000     -68.00400000
C      -41.27260000     -33.42300000     -69.80730000
H      -41.24530000     -34.45610000     -69.40860000
H      -40.20220000     -33.13170000     -69.65900000
C      -45.82750000     -33.38360000     -67.65950000
H      -45.76920000     -34.40860000     -68.09820000
H      -45.91780000     -33.41560000     -66.60400000
S      -41.38930000     -33.40700000     -71.67430000
S      -47.37300000     -32.50080000     -68.34970000
C      -42.95910000     -34.28130000     -72.28170000
H      -42.67730000     -34.48230000     -73.33260000
H      -43.12540000     -35.34990000     -71.90300000
C      -47.10380000     -32.89030000     -70.18130000
H      -46.10390000     -32.47050000     -70.45980000
H      -47.91150000     -32.45930000     -70.76590000
C      -47.24470000     -34.40700000     -70.43500000
H      -46.39290000     -34.92800000     -69.99750000
H      -48.07630000     -34.68650000     -69.75200000
C      -44.27150000     -33.47620000     -72.18660000
H      -44.00210000     -32.40020000     -72.05760000
H      -44.67220000     -33.84240000     -71.22660000
C      -45.26400000     -33.67910000     -73.25920000
C      -44.95340000     -33.36980000     -74.50890000
C      -46.61270000     -34.13210000     -73.02940000
H      -44.09820000     -32.90230000     -74.86290000
C      -47.24190000     -34.26970000     -74.31330000
C      -47.54080000     -34.59660000     -71.93320000
C      -48.78310000     -34.94480000     -72.40000000
S      -46.33560000     -33.71670000     -75.63310000
S      -48.90600000     -34.77310000     -74.17600000
H      -49.62490000     -35.28800000     -71.79670000
