40
Properties=species:S:1:pos:R:3 #=T CELL(abcABC):=T 1.889726e+02=T 90.00000=T Traj:=T positionsangstrom=T Step:=T 0=T Bead:=T pbc="F F F"
C      -46.83380000     -32.48210000     -74.85230000
C      -46.02680000     -32.27160000     -73.70320000
C      -45.22470000     -33.32050000     -73.23150000
C      -45.04180000     -34.53350000     -73.95270000
C      -45.87260000     -34.64290000     -75.14350000
C      -46.74020000     -33.65560000     -75.53370000
H      -47.45780000     -31.69190000     -75.18180000
H      -44.68550000     -33.19560000     -72.30550000
H      -45.75730000     -35.46990000     -75.82800000
H      -47.38150000     -33.85870000     -76.36100000
C      -43.98370000     -35.53040000     -73.42540000
H      -43.24270000     -34.87920000     -72.93360000
H      -43.32380000     -36.04640000     -74.14280000
C      -46.23710000     -31.11070000     -72.73620000
H      -45.68970000     -31.25360000     -71.79630000
H      -46.00340000     -30.10370000     -73.10660000
S      -44.73140000     -36.80350000     -72.20710000
S      -47.91740000     -31.11590000     -72.01730000
C      -46.12800000     -35.96350000     -71.34240000
H      -46.41590000     -35.08520000     -71.86270000
H      -46.94860000     -36.68200000     -71.21890000
C      -47.93930000     -32.68790000     -71.00760000
H      -47.61360000     -33.54040000     -71.55080000
H      -49.02670000     -32.88490000     -70.89000000
C      -47.40300000     -32.56060000     -69.56410000
H      -47.99150000     -31.76720000     -69.05960000
H      -47.63410000     -33.49150000     -69.07070000
C      -45.77950000     -35.66970000     -69.87820000
H      -45.47470000     -36.67080000     -69.49180000
H      -46.73830000     -35.42130000     -69.42520000
C      -44.69440000     -34.57180000     -69.63720000
C      -43.39670000     -35.00720000     -69.52130000
C      -44.82200000     -33.17180000     -69.37930000
H      -43.03770000     -36.04760000     -69.65030000
C      -43.62550000     -32.60780000     -69.07740000
C      -45.96880000     -32.21550000     -69.42210000
C      -45.51860000     -30.94500000     -69.10760000
S      -42.23490000     -33.67760000     -69.14850000
S      -43.73280000     -30.92230000     -68.85160000
H      -46.19450000     -30.06480000     -69.02650000
