40
Properties=species:S:1:pos:R:3 #=T CELL(abcABC):=T 1.889726e+02=T 90.00000=T Traj:=T positionsangstrom=T Step:=T 0=T Bead:=T pbc="F F F"
C      -46.86820000     -32.64680000     -74.68390000
C      -46.12350000     -32.43660000     -73.53270000
C      -45.13090000     -33.30410000     -73.14360000
C      -44.91990000     -34.48070000     -73.91970000
C      -45.61420000     -34.60190000     -75.14000000
C      -46.60630000     -33.67080000     -75.52850000
H      -47.73860000     -32.00410000     -74.96370000
H      -44.58970000     -33.12090000     -72.24170000
H      -45.55140000     -35.45350000     -75.78620000
H      -46.94430000     -33.79660000     -76.59470000
C      -43.88120000     -35.42980000     -73.41470000
H      -43.08100000     -34.92060000     -72.88500000
H      -43.49080000     -36.05470000     -74.22120000
C      -46.41970000     -31.29980000     -72.63160000
H      -45.65110000     -31.27360000     -71.82150000
H      -46.22140000     -30.33670000     -73.23750000
S      -44.54970000     -36.69640000     -72.30280000
S      -48.06140000     -31.20850000     -71.87910000
C      -46.00510000     -36.05950000     -71.29840000
H      -46.44000000     -35.20210000     -71.91730000
H      -46.61200000     -36.96750000     -71.37620000
C      -48.02450000     -32.75770000     -70.86370000
H      -47.40760000     -33.52700000     -71.40900000
H      -49.10270000     -32.98260000     -70.74110000
C      -47.40340000     -32.63270000     -69.41020000
H      -48.01440000     -31.92890000     -68.88920000
H      -47.54290000     -33.61090000     -68.90300000
C      -45.78160000     -35.62120000     -69.87240000
H      -45.66010000     -36.54790000     -69.31000000
H      -46.74270000     -35.19810000     -69.51630000
C      -44.68200000     -34.66130000     -69.62620000
C      -43.36150000     -34.97680000     -69.62620000
C      -44.85870000     -33.14950000     -69.46780000
H      -43.08060000     -36.01180000     -69.68660000
C      -43.64610000     -32.51060000     -69.22400000
C      -45.94360000     -32.27470000     -69.44350000
C      -45.62340000     -30.98850000     -69.20760000
S      -42.27910000     -33.60340000     -69.20870000
S      -43.87070000     -30.77380000     -69.01760000
H      -46.23430000     -30.15260000     -69.28760000
