40
Properties=species:S:1:pos:R:3 #=T CELL(abcABC):=T 1.889726e+02=T 90.00000=T Traj:=T positionsangstrom=T Step:=T 0=T Bead:=T pbc="F F F"
C      -46.88750000     -32.80540000     -74.57510000
C      -46.21210000     -32.25840000     -73.47780000
C      -45.19690000     -33.00970000     -72.88020000
C      -44.81420000     -34.20300000     -73.48700000
C      -45.51740000     -34.73990000     -74.58390000
C      -46.57060000     -34.02730000     -75.14560000
H      -47.50880000     -32.18550000     -75.20940000
H      -44.65800000     -32.65250000     -71.99780000
H      -45.08040000     -35.68390000     -74.92510000
H      -47.17380000     -34.43660000     -76.01380000
C      -43.77100000     -35.06060000     -72.91440000
H      -43.26790000     -34.57300000     -72.06870000
H      -43.08000000     -35.35260000     -73.69340000
C      -46.62160000     -30.92170000     -72.88330000
H      -45.69910000     -30.55590000     -72.29860000
H      -46.98750000     -30.13960000     -73.56700000
S      -44.46870000     -36.68160000     -72.27360000
S      -48.19690000     -31.14920000     -71.83860000
C      -45.96540000     -36.11640000     -71.33020000
H      -46.50430000     -35.39680000     -71.97360000
H      -46.64240000     -36.98990000     -71.39200000
C      -47.98470000     -32.74880000     -70.99000000
H      -47.14780000     -33.31000000     -71.47800000
H      -48.94380000     -33.27890000     -70.92210000
C      -47.46670000     -32.64880000     -69.50380000
H      -48.11100000     -31.92400000     -69.00470000
H      -47.70270000     -33.57470000     -69.01400000
C      -45.78290000     -35.71730000     -69.78370000
H      -45.52640000     -36.67000000     -69.28210000
H      -46.76530000     -35.34010000     -69.44930000
C      -44.67310000     -34.70880000     -69.65110000
C      -43.33140000     -35.09980000     -69.65350000
C      -44.88370000     -33.31260000     -69.56440000
H      -42.85560000     -36.07490000     -69.70440000
C      -43.67740000     -32.60890000     -69.46790000
C      -46.00000000     -32.31700000     -69.39020000
C      -45.55550000     -31.05310000     -69.13120000
S      -42.28210000     -33.64880000     -69.65380000
S      -43.81850000     -30.88290000     -69.31480000
H      -46.06460000     -30.12380000     -68.71440000
