40
Properties=species:S:1:pos:R:3 #=T CELL(abcABC):=T 1.889726e+02=T 90.00000=T Traj:=T positionsangstrom=T Step:=T 0=T Bead:=T pbc="F F F"
C      -46.99010000     -32.74030000     -74.56230000
C      -46.27480000     -32.17110000     -73.48630000
C      -45.15220000     -32.91280000     -73.06860000
C      -44.79030000     -34.13710000     -73.64650000
C      -45.49880000     -34.62940000     -74.75430000
C      -46.65510000     -33.94260000     -75.16160000
H      -47.98480000     -32.36900000     -74.79160000
H      -44.52190000     -32.65200000     -72.25060000
H      -45.21400000     -35.64700000     -75.17070000
H      -47.36010000     -34.29510000     -75.88150000
C      -43.77820000     -34.97530000     -72.91320000
H      -43.34510000     -34.46150000     -72.07310000
H      -42.89490000     -35.33270000     -73.53240000
C      -46.73110000     -30.92190000     -72.71350000
H      -45.90280000     -30.58240000     -72.09680000
H      -46.96960000     -30.12690000     -73.37540000
S      -44.43520000     -36.59450000     -72.05210000
S      -48.30090000     -31.25950000     -71.77470000
C      -46.00490000     -36.11070000     -71.10690000
H      -46.34100000     -35.16970000     -71.52090000
H      -46.74960000     -36.90190000     -71.12840000
C      -48.07790000     -32.86270000     -70.98080000
H      -47.46120000     -33.47760000     -71.71780000
H      -49.10730000     -33.25400000     -71.01320000
C      -47.42840000     -32.86150000     -69.61670000
H      -47.83770000     -32.16000000     -68.90270000
H      -47.48020000     -33.89170000     -69.20370000
C      -45.60530000     -35.79030000     -69.64090000
H      -45.29060000     -36.73240000     -69.12820000
H      -46.44590000     -35.54870000     -69.03410000
C      -44.56940000     -34.70880000     -69.53530000
C      -43.22000000     -35.06600000     -69.57290000
C      -44.81420000     -33.32060000     -69.60250000
H      -42.74940000     -36.05580000     -69.54540000
C      -43.62730000     -32.64460000     -69.53190000
C      -46.04350000     -32.38470000     -69.63570000
C      -45.60870000     -31.08670000     -69.52470000
S      -42.19650000     -33.64300000     -69.65850000
S      -43.84030000     -30.88010000     -69.38090000
H      -46.34810000     -30.21620000     -69.52690000
