40
Properties=species:S:1:pos:R:3 #=T CELL(abcABC):=T 1.889726e+02=T 90.00000=T Traj:=T positionsangstrom=T Step:=T 0=T Bead:=T pbc="F F F"
C      -47.29890000     -32.73810000     -74.80470000
C      -46.62390000     -32.33890000     -73.62420000
C      -45.48710000     -33.04690000     -73.21280000
C      -45.14340000     -34.28470000     -73.77950000
C      -45.88230000     -34.75850000     -74.88440000
C      -46.87670000     -33.92640000     -75.45990000
H      -48.08960000     -32.06350000     -75.10090000
H      -44.85060000     -32.65000000     -72.44030000
H      -45.64200000     -35.71150000     -75.27450000
H      -47.38790000     -34.23960000     -76.38240000
C      -43.98800000     -35.11070000     -73.26430000
H      -43.31850000     -34.45880000     -72.62640000
H      -43.36790000     -35.59690000     -74.01450000
C      -46.96180000     -31.07630000     -72.85050000
H      -46.18810000     -30.67530000     -72.25970000
H      -47.38120000     -30.32540000     -73.53370000
S      -44.46220000     -36.59760000     -72.25370000
S      -48.28960000     -31.41880000     -71.51810000
C      -45.65850000     -36.08670000     -70.98960000
H      -46.24000000     -35.19480000     -71.27560000
H      -46.36970000     -36.92670000     -70.92330000
C      -48.12790000     -33.07940000     -70.79420000
H      -47.70490000     -33.73930000     -71.57530000
H      -49.19440000     -33.19190000     -70.39880000
C      -47.28850000     -33.01940000     -69.52100000
H      -47.89000000     -32.47110000     -68.79100000
H      -47.33140000     -34.00900000     -69.13640000
C      -45.14670000     -35.88200000     -69.54130000
H      -44.47920000     -36.69260000     -69.26760000
H      -46.04900000     -35.86470000     -68.89030000
C      -44.28520000     -34.68150000     -69.42140000
C      -42.92030000     -34.77700000     -69.14800000
C      -44.61500000     -33.24870000     -69.54000000
H      -42.41040000     -35.73610000     -69.00870000
C      -43.47600000     -32.40520000     -69.50610000
C      -45.85800000     -32.48680000     -69.64990000
C      -45.59120000     -31.12700000     -69.85840000
S      -42.05380000     -33.29000000     -69.00870000
S      -43.82440000     -30.73510000     -69.76130000
H      -46.37760000     -30.38840000     -69.83390000
