40
Properties=species:S:1:pos:R:3 #=T CELL(abcABC):=T 1.889726e+02=T 90.00000=T Traj:=T positionsangstrom=T Step:=T 0=T Bead:=T pbc="F F F"
C      -49.40530000     -33.03940000     -72.42880000
C      -48.67370000     -33.27110000     -71.25450000
C      -47.85180000     -32.25780000     -70.80630000
C      -47.92000000     -31.00770000     -71.47250000
C      -48.58310000     -30.75390000     -72.64020000
C      -49.39540000     -31.78690000     -73.13530000
H      -49.99140000     -33.95240000     -72.75180000
H      -47.29480000     -32.42720000     -69.86440000
H      -48.44240000     -29.89100000     -73.18540000
H      -49.91070000     -31.62880000     -74.04600000
C      -47.19520000     -29.82650000     -70.77040000
H      -47.32620000     -30.13710000     -69.68490000
H      -47.85440000     -28.98620000     -70.95050000
C      -48.65170000     -34.65560000     -70.55650000
H      -47.87170000     -34.41330000     -69.85540000
H      -49.64130000     -34.76020000     -70.13170000
S      -45.50250000     -29.32760000     -71.07470000
S      -48.28890000     -35.94540000     -71.71950000
C      -44.48160000     -30.74250000     -70.53070000
H      -43.55640000     -30.26210000     -70.19660000
H      -44.94050000     -31.21610000     -69.66680000
C      -46.56400000     -36.32010000     -71.26260000
H      -46.23760000     -37.06160000     -72.01660000
H      -46.66820000     -36.75370000     -70.23520000
C      -45.62540000     -35.05470000     -71.27270000
H      -45.81630000     -34.45200000     -72.20050000
H      -45.96250000     -34.34650000     -70.47920000
C      -44.34870000     -31.88520000     -71.65310000
H      -44.29000000     -31.22960000     -72.47780000
H      -45.36350000     -32.32870000     -71.67010000
C      -43.27680000     -32.87320000     -71.49780000
C      -41.98770000     -32.40250000     -71.52550000
C      -43.18220000     -34.30810000     -71.27360000
H      -41.69230000     -31.35810000     -71.46220000
C      -41.91030000     -34.79630000     -71.09610000
C      -44.14740000     -35.36890000     -70.99470000
C      -43.54580000     -36.61080000     -70.70730000
S      -40.72790000     -33.55020000     -71.32090000
S      -41.83650000     -36.42430000     -70.58880000
H      -44.02430000     -37.49720000     -70.31870000
