40
Properties=species:S:1:pos:R:3 #=T CELL(abcABC):=T 1.889726e+02=T 90.00000=T Traj:=T positionsangstrom=T Step:=T 0=T Bead:=T pbc="F F F"
C      -49.21760000     -33.00810000     -72.60780000
C      -48.66240000     -33.27320000     -71.34940000
C      -48.11000000     -32.13400000     -70.70980000
C      -47.94510000     -30.93160000     -71.42160000
C      -48.53310000     -30.64070000     -72.66310000
C      -49.17890000     -31.73040000     -73.28460000
H      -49.61120000     -33.90410000     -73.04240000
H      -47.70910000     -32.14190000     -69.69680000
H      -48.42580000     -29.66950000     -73.19580000
H      -49.63090000     -31.57960000     -74.29310000
C      -47.25590000     -29.77190000     -70.76180000
H      -47.17830000     -29.79920000     -69.66890000
H      -47.69760000     -28.81190000     -71.14380000
C      -48.84080000     -34.56880000     -70.69200000
H      -48.50620000     -34.59060000     -69.67650000
H      -49.89060000     -34.93880000     -70.59050000
S      -45.50740000     -29.37110000     -71.32960000
S      -48.14720000     -36.05500000     -71.73980000
C      -44.48630000     -30.80270000     -70.65320000
H      -43.44300000     -30.43470000     -70.72210000
H      -44.75490000     -30.74670000     -69.60290000
C      -46.52720000     -36.41750000     -70.89080000
H      -46.12730000     -37.25060000     -71.42060000
H      -46.60190000     -36.70600000     -69.82770000
C      -45.66180000     -35.11920000     -71.10030000
H      -45.75740000     -34.71100000     -72.15940000
H      -46.11620000     -34.22150000     -70.61170000
C      -44.57470000     -32.12150000     -71.39930000
H      -44.85250000     -32.08000000     -72.43260000
H      -45.34000000     -32.77460000     -70.94790000
C      -43.27200000     -32.88490000     -71.39310000
C      -42.03640000     -32.33120000     -71.56240000
C      -43.17530000     -34.27380000     -71.07260000
H      -41.78810000     -31.28000000     -71.79800000
C      -41.92530000     -34.70240000     -70.93210000
C      -44.15910000     -35.32440000     -70.81700000
C      -43.60890000     -36.57300000     -70.70470000
S      -40.67580000     -33.50810000     -71.30460000
S      -41.84410000     -36.43110000     -70.64720000
H      -44.15720000     -37.50760000     -70.55540000
