40
Properties=species:S:1:pos:R:3 #=T CELL(abcABC):=T 1.889726e+02=T 90.00000=T Traj:=T positionsangstrom=T Step:=T 0=T Bead:=T pbc="F F F"
C      -49.06330000     -33.04510000     -72.95550000
C      -48.72160000     -33.27190000     -71.55730000
C      -48.19450000     -32.18850000     -70.81810000
C      -47.92320000     -31.01700000     -71.45070000
C      -48.33970000     -30.65790000     -72.74770000
C      -48.82640000     -31.74150000     -73.50550000
H      -49.64080000     -33.82530000     -73.43640000
H      -47.83400000     -32.37020000     -69.81270000
H      -48.26350000     -29.57520000     -73.08540000
H      -49.14590000     -31.49680000     -74.52330000
C      -47.22370000     -29.99460000     -70.63600000
H      -46.86730000     -30.34480000     -69.68880000
H      -47.88910000     -29.14310000     -70.41130000
C      -48.92510000     -34.58160000     -70.83760000
H      -48.62230000     -34.45800000     -69.77250000
H      -49.99030000     -34.79750000     -70.78390000
S      -45.73370000     -29.47390000     -71.57980000
S      -48.22920000     -36.08870000     -71.59440000
C      -44.45870000     -30.56870000     -70.84310000
H      -43.48910000     -30.26200000     -70.97790000
H      -44.58010000     -30.65330000     -69.72830000
C      -46.60830000     -36.29440000     -70.76560000
H      -46.12520000     -37.10070000     -71.35430000
H      -46.61330000     -36.66110000     -69.71750000
C      -45.66880000     -35.04640000     -70.75180000
H      -45.75140000     -34.55400000     -71.65410000
H      -45.98490000     -34.46080000     -69.88590000
C      -44.52470000     -31.96480000     -71.46190000
H      -44.57030000     -31.84360000     -72.58400000
H      -45.44010000     -32.47030000     -71.24660000
C      -43.35360000     -32.83170000     -71.19780000
C      -42.06610000     -32.29820000     -71.31900000
C      -43.24340000     -34.29020000     -70.95280000
H      -41.92830000     -31.25020000     -71.44830000
C      -41.88290000     -34.69760000     -71.02090000
C      -44.14790000     -35.40490000     -70.68890000
C      -43.48860000     -36.60760000     -70.61100000
S      -40.70210000     -33.44020000     -71.19770000
S      -41.72740000     -36.41260000     -70.63320000
H      -44.00370000     -37.55580000     -70.52650000
