40
Properties=species:S:1:pos:R:3 #=T CELL(abcABC):=T 1.889726e+02=T 90.00000=T Traj:=T positionsangstrom=T Step:=T 0=T Bead:=T pbc="F F F"
C      -47.45580000     -32.91890000     -74.14220000
C      -46.46500000     -32.56210000     -73.24920000
C      -45.36400000     -33.41740000     -72.94010000
C      -45.29390000     -34.66220000     -73.50920000
C      -46.26590000     -35.03380000     -74.49410000
C      -47.31680000     -34.21390000     -74.84650000
H      -48.15860000     -32.12110000     -74.41990000
H      -44.51520000     -33.05560000     -72.34860000
H      -46.15300000     -36.07160000     -74.86520000
H      -47.93530000     -34.63490000     -75.61070000
C      -44.15650000     -35.56900000     -73.23370000
H      -43.34150000     -35.10140000     -72.66050000
H      -43.72230000     -36.00130000     -74.14120000
C      -46.78870000     -31.30770000     -72.44530000
H      -45.91760000     -31.06300000     -71.84780000
H      -47.07400000     -30.49800000     -73.09880000
S      -44.77910000     -36.96620000     -72.17300000
S      -48.29350000     -31.60960000     -71.42200000
C      -45.82150000     -36.04420000     -70.96750000
H      -46.30920000     -35.23000000     -71.51270000
H      -46.63110000     -36.65590000     -70.74420000
C      -47.86010000     -32.93820000     -70.30740000
H      -47.33800000     -33.77230000     -70.77320000
H      -48.82020000     -33.25520000     -69.86790000
C      -47.01350000     -32.66150000     -69.06730000
H      -47.38940000     -31.91230000     -68.40590000
H      -46.99450000     -33.61910000     -68.52960000
C      -45.18950000     -35.57180000     -69.66210000
H      -44.82930000     -36.46110000     -69.03940000
H      -46.02230000     -35.31280000     -68.94790000
C      -44.16630000     -34.40710000     -69.77790000
C      -42.85370000     -34.63810000     -69.98870000
C      -44.47080000     -32.95480000     -69.74080000
H      -42.47460000     -35.61810000     -70.21800000
C      -43.34090000     -32.09040000     -70.00560000
C      -45.62240000     -32.14350000     -69.39340000
C      -45.41550000     -30.78760000     -69.25350000
S      -41.92050000     -33.08610000     -70.28020000
S      -43.78950000     -30.41990000     -69.87080000
H      -46.18480000     -30.07980000     -69.06550000
