40
Properties=species:S:1:pos:R:3 #=T CELL(abcABC):=T 1.889726e+02=T 90.00000=T Traj:=T positionsangstrom=T Step:=T 0=T Bead:=T pbc="F F F"
C      -48.95920000     -33.43960000     -73.05610000
C      -48.65080000     -33.60510000     -71.66940000
C      -48.02690000     -32.54390000     -70.99500000
C      -47.62350000     -31.45130000     -71.67660000
C      -47.72600000     -31.42910000     -73.09680000
C      -48.49060000     -32.36070000     -73.80500000
H      -49.44990000     -34.32250000     -73.56530000
H      -48.03090000     -32.51380000     -69.92340000
H      -47.37780000     -30.56980000     -73.72810000
H      -48.67950000     -32.27280000     -74.85840000
C      -47.25470000     -30.16400000     -70.93670000
H      -47.02020000     -30.36870000     -69.87460000
H      -48.10400000     -29.43740000     -71.06200000
C      -49.23130000     -34.78130000     -71.04150000
H      -49.21130000     -34.76750000     -69.94200000
H      -50.31970000     -34.91740000     -71.14040000
S      -45.78110000     -29.20880000     -71.65660000
S      -48.33420000     -36.41780000     -71.37500000
C      -44.28070000     -30.22870000     -71.29810000
H      -43.61530000     -29.97810000     -72.02520000
H      -43.73340000     -29.81600000     -70.41510000
C      -46.61970000     -36.18420000     -70.66190000
H      -46.13450000     -37.10420000     -71.03000000
H      -46.55210000     -36.23410000     -69.54860000
C      -45.80420000     -34.91440000     -71.14560000
H      -45.94800000     -34.68070000     -72.20810000
H      -46.26220000     -34.04970000     -70.71650000
C      -44.53620000     -31.74980000     -71.25470000
H      -45.07140000     -32.01900000     -72.19960000
H      -45.27630000     -31.78160000     -70.44660000
C      -43.32180000     -32.57600000     -71.08000000
C      -42.03010000     -32.04880000     -71.15110000
C      -43.31490000     -34.03150000     -70.85320000
H      -41.71950000     -31.06070000     -71.45420000
C      -41.98420000     -34.50960000     -70.75220000
C      -44.28960000     -35.09440000     -70.78920000
C      -43.59550000     -36.25370000     -70.36000000
S      -40.78040000     -33.27380000     -70.92540000
S      -41.84480000     -36.18350000     -70.36300000
H      -44.12770000     -37.18850000     -70.39860000
