40
Properties=species:S:1:pos:R:3 #=T CELL(abcABC):=T 1.889726e+02=T 90.00000=T Traj:=T positionsangstrom=T Step:=T 0=T Bead:=T pbc="F F F"
C      -45.54870000     -36.50970000     -72.20010000
C      -45.82690000     -36.51770000     -70.83010000
C      -46.97860000     -35.98310000     -70.34900000
C      -47.89220000     -35.31800000     -71.17590000
C      -47.68760000     -35.39320000     -72.60820000
C      -46.46830000     -35.93940000     -73.11030000
H      -44.65030000     -37.01670000     -72.44330000
H      -47.22540000     -35.93220000     -69.31500000
H      -48.33200000     -34.95100000     -73.34610000
H      -46.02430000     -35.91950000     -74.09360000
C      -49.04450000     -34.64630000     -70.55050000
H      -49.42670000     -35.27190000     -69.68980000
H      -49.79360000     -34.46970000     -71.35380000
C      -44.83640000     -37.26970000     -69.97090000
H      -45.29720000     -37.92750000     -69.44390000
H      -44.07280000     -37.77310000     -70.55080000
S      -48.78110000     -32.97390000     -69.79050000
S      -44.00330000     -36.15760000     -68.82130000
C      -47.70740000     -32.14630000     -71.14720000
H      -47.32470000     -32.86750000     -71.86610000
H      -48.38650000     -31.40580000     -71.57700000
C      -43.13900000     -34.82910000     -69.87610000
H      -42.78000000     -35.40670000     -70.78160000
H      -42.28340000     -34.39850000     -69.31730000
C      -44.08680000     -33.71320000     -70.27370000
H      -44.97560000     -34.16100000     -70.77540000
H      -44.53600000     -33.16570000     -69.41710000
C      -46.61080000     -31.33140000     -70.52770000
H      -46.16800000     -31.81040000     -69.69350000
H      -47.00680000     -30.39280000     -70.20840000
C      -45.53940000     -30.97210000     -71.58520000
C      -45.69110000     -29.87420000     -72.38830000
C      -44.21970000     -31.55170000     -71.74870000
H      -46.59030000     -29.23220000     -72.40150000
C      -43.46830000     -30.80920000     -72.68870000
C      -43.42930000     -32.74950000     -71.25650000
C      -42.29470000     -32.90940000     -71.92970000
S      -44.29880000     -29.44030000     -73.32310000
S      -41.94030000     -31.63790000     -73.10730000
H      -41.92930000     -33.80940000     -72.04530000
