40
Properties=species:S:1:pos:R:3 #=T CELL(abcABC):=T 1.889726e+02=T 90.00000=T Traj:=T positionsangstrom=T Step:=T 0=T Bead:=T pbc="F F F"
C      -47.85740000     -33.30110000     -74.06090000
C      -46.70340000     -32.69570000     -73.45140000
C      -45.58690000     -33.48550000     -73.22360000
C      -45.49100000     -34.84400000     -73.54370000
C      -46.56710000     -35.31850000     -74.38570000
C      -47.72680000     -34.50800000     -74.63610000
H      -48.60640000     -32.64920000     -74.51860000
H      -44.81890000     -33.01510000     -72.60830000
H      -46.58260000     -36.31310000     -74.77990000
H      -48.50520000     -34.98340000     -75.20870000
C      -44.30650000     -35.63930000     -73.16420000
H      -43.59840000     -34.89720000     -72.78890000
H      -43.95260000     -36.23270000     -74.07370000
C      -46.72550000     -31.34790000     -72.96530000
H      -45.67950000     -31.06690000     -72.64190000
H      -46.98390000     -30.65860000     -73.71440000
S      -44.51560000     -36.99680000     -71.87100000
S      -47.89180000     -31.04300000     -71.54310000
C      -45.67570000     -36.23340000     -70.65100000
H      -46.39220000     -35.66350000     -71.26230000
H      -46.16590000     -37.08970000     -70.15710000
C      -47.99690000     -32.66140000     -70.54100000
H      -47.65060000     -33.51830000     -71.11230000
H      -49.04470000     -32.84170000     -70.20780000
C      -47.13720000     -32.57700000     -69.25690000
H      -47.44070000     -31.84160000     -68.44780000
H      -47.25900000     -33.53470000     -68.70400000
C      -45.13000000     -35.45230000     -69.47720000
H      -44.48730000     -36.14510000     -68.86750000
H      -45.92780000     -35.10580000     -68.83370000
C      -44.15820000     -34.40610000     -69.86290000
C      -42.80690000     -34.64250000     -70.09590000
C      -44.56000000     -33.00690000     -69.82840000
H      -42.19540000     -35.54530000     -70.13240000
C      -43.45350000     -32.16350000     -70.02040000
C      -45.69090000     -32.15890000     -69.36720000
C      -45.27860000     -30.81640000     -69.23630000
S      -41.97270000     -33.07980000     -70.39730000
S      -43.60990000     -30.44080000     -69.62290000
H      -46.00020000     -30.03230000     -69.09210000
