40
Properties=species:S:1:pos:R:3 #=T CELL(abcABC):=T 1.889726e+02=T 90.00000=T Traj:=T positionsangstrom=T Step:=T 0=T Bead:=T pbc="F F F"
C      -45.93360000     -36.75750000     -71.91230000
C      -45.92580000     -36.63600000     -70.52230000
C      -46.86280000     -35.71200000     -69.97370000
C      -47.83540000     -35.19720000     -70.82330000
C      -47.89330000     -35.46060000     -72.17190000
C      -46.86290000     -36.20730000     -72.73880000
H      -45.16630000     -37.40300000     -72.35100000
H      -46.88890000     -35.44770000     -68.89900000
H      -48.70600000     -35.06100000     -72.73200000
H      -46.88340000     -36.23660000     -73.79960000
C      -49.03600000     -34.35340000     -70.24310000
H      -49.64200000     -34.75650000     -69.42890000
H      -49.77010000     -34.19900000     -71.02100000
C      -44.94520000     -37.24450000     -69.58660000
H      -45.41820000     -37.73670000     -68.75150000
H      -44.39010000     -38.00110000     -70.13080000
S      -48.53920000     -32.64980000     -69.65840000
S      -43.77490000     -35.99570000     -68.82570000
C      -47.26250000     -32.12530000     -70.87960000
H      -46.68140000     -32.84000000     -71.44500000
H      -47.85610000     -31.66460000     -71.70210000
C      -43.26360000     -35.08490000     -70.39560000
H      -43.28690000     -35.76740000     -71.26860000
H      -42.26570000     -34.71490000     -70.30680000
C      -44.07530000     -33.81690000     -70.50820000
H      -45.12010000     -33.97420000     -70.45920000
H      -43.81140000     -33.23950000     -69.65750000
C      -46.24280000     -31.11410000     -70.30270000
H      -45.64640000     -31.61920000     -69.56760000
H      -46.63700000     -30.16720000     -69.88450000
C      -45.25790000     -30.71080000     -71.39640000
C      -45.17310000     -29.47810000     -71.97340000
C      -44.16540000     -31.57640000     -71.88670000
H      -45.78160000     -28.59390000     -71.73300000
C      -43.50940000     -30.96260000     -72.96410000
C      -43.66810000     -32.94140000     -71.67370000
C      -42.84660000     -33.32020000     -72.70310000
S      -44.00550000     -29.35170000     -73.28500000
S      -42.61570000     -32.13270000     -73.93040000
H      -42.20070000     -34.21860000     -72.86990000
