40
Properties=species:S:1:pos:R:3 #=T CELL(abcABC):=T 1.889726e+02=T 90.00000=T Traj:=T positionsangstrom=T Step:=T 0=T Bead:=T pbc="F F F"
C      -46.13610000     -36.99530000     -71.64730000
C      -46.14690000     -36.62030000     -70.29840000
C      -47.08730000     -35.70640000     -69.79640000
C      -48.04900000     -35.12560000     -70.67520000
C      -48.06990000     -35.63690000     -71.97190000
C      -47.12070000     -36.47310000     -72.48990000
H      -45.31710000     -37.52350000     -72.08680000
H      -47.13290000     -35.44920000     -68.70450000
H      -48.80530000     -35.12690000     -72.60540000
H      -47.05710000     -36.77970000     -73.53230000
C      -49.07360000     -34.06100000     -70.17090000
H      -49.65940000     -34.51630000     -69.41460000
H      -49.69770000     -33.78500000     -71.05980000
C      -44.98580000     -37.15690000     -69.43440000
H      -45.42280000     -37.66090000     -68.54990000
H      -44.39550000     -37.89430000     -69.91220000
S      -48.21660000     -32.62530000     -69.39880000
S      -43.92540000     -35.79310000     -68.87690000
C      -47.19230000     -31.85060000     -70.73350000
H      -46.91700000     -32.69380000     -71.43740000
H      -47.80570000     -31.06660000     -71.22420000
C      -43.22260000     -34.96820000     -70.42730000
H      -42.63640000     -35.67950000     -70.98340000
H      -42.55890000     -34.22420000     -69.93390000
C      -44.32470000     -34.19690000     -71.19970000
H      -45.01840000     -34.85620000     -71.82260000
H      -44.95340000     -33.82550000     -70.39530000
C      -45.90140000     -31.16110000     -70.19460000
H      -45.32440000     -31.73180000     -69.45260000
H      -46.13070000     -30.23490000     -69.70270000
C      -44.99830000     -30.74750000     -71.35010000
C      -44.88960000     -29.47010000     -71.89540000
C      -44.10110000     -31.67790000     -72.05520000
H      -45.31330000     -28.54620000     -71.61110000
C      -43.47820000     -31.06170000     -73.12930000
C      -43.70660000     -33.07290000     -71.97940000
C      -42.98660000     -33.42930000     -73.12860000
S      -43.82070000     -29.33090000     -73.25610000
S      -42.68760000     -32.10210000     -74.20670000
H      -42.60720000     -34.41480000     -73.26990000
