40
Properties=species:S:1:pos:R:3 #=T CELL(abcABC):=T 1.889726e+02=T 90.00000=T Traj:=T positionsangstrom=T Step:=T 0=T Bead:=T pbc="F F F"
C      -46.42750000     -37.17480000     -71.52520000
C      -46.25850000     -36.64510000     -70.23480000
C      -47.11070000     -35.64830000     -69.78400000
C      -48.01440000     -34.98270000     -70.61450000
C      -48.09590000     -35.47810000     -71.92140000
C      -47.40210000     -36.60040000     -72.35000000
H      -45.88870000     -38.05270000     -71.78460000
H      -46.85560000     -35.23920000     -68.81090000
H      -48.81580000     -35.06110000     -72.62840000
H      -47.58360000     -37.19680000     -73.19880000
C      -48.94250000     -33.90750000     -70.09030000
H      -49.61960000     -34.27630000     -69.33880000
H      -49.49480000     -33.39150000     -70.84460000
C      -45.15720000     -37.04540000     -69.33970000
H      -45.53990000     -37.39950000     -68.40110000
H      -44.47370000     -37.92090000     -69.67280000
S      -48.01160000     -32.55950000     -69.30480000
S      -43.98580000     -35.62640000     -68.83360000
C      -46.99090000     -31.95500000     -70.66920000
H      -46.66720000     -32.76610000     -71.27670000
H      -47.41040000     -31.35250000     -71.40610000
C      -43.36750000     -34.97150000     -70.41040000
H      -43.01610000     -35.86760000     -70.92350000
H      -42.46590000     -34.34210000     -70.29440000
C      -44.39570000     -34.20960000     -71.24020000
H      -44.92290000     -34.89920000     -71.78320000
H      -45.02150000     -33.58170000     -70.61160000
C      -45.69410000     -31.28750000     -70.18960000
H      -45.19350000     -31.94450000     -69.49600000
H      -45.90290000     -30.36130000     -69.67630000
C      -44.89240000     -30.94810000     -71.40970000
C      -44.91860000     -29.64050000     -71.82280000
C      -44.07350000     -31.81130000     -72.20520000
H      -45.27250000     -28.77340000     -71.27090000
C      -43.49390000     -31.06660000     -73.25820000
C      -43.81570000     -33.20820000     -72.28150000
C      -43.03260000     -33.47810000     -73.40350000
S      -43.89920000     -29.36260000     -73.28060000
S      -42.52040000     -32.03280000     -74.27310000
H      -42.72080000     -34.46590000     -73.69660000
