40
Properties=species:S:1:pos:R:3 #=T CELL(abcABC):=T 1.889726e+02=T 90.00000=T Traj:=T positionsangstrom=T Step:=T 0=T Bead:=T pbc="F F F"
C      -46.52050000     -37.11050000     -71.45880000
C      -46.29080000     -36.56330000     -70.17800000
C      -47.07160000     -35.49680000     -69.74250000
C      -48.09070000     -34.97060000     -70.50450000
C      -48.32540000     -35.50910000     -71.73230000
C      -47.57220000     -36.59590000     -72.23160000
H      -45.77170000     -37.88020000     -71.84450000
H      -46.83570000     -35.23990000     -68.74140000
H      -49.13050000     -35.13220000     -72.35760000
H      -47.60940000     -36.84930000     -73.27820000
C      -48.95140000     -33.78990000     -70.01140000
H      -49.73710000     -34.16340000     -69.31160000
H      -49.49330000     -33.39520000     -70.88410000
C      -45.10310000     -36.98800000     -69.34590000
H      -45.43020000     -37.41360000     -68.44870000
H      -44.50790000     -37.67300000     -69.98120000
S      -47.95620000     -32.50660000     -69.16090000
S      -44.08500000     -35.50820000     -68.88690000
C      -47.00370000     -31.92200000     -70.60350000
H      -47.04100000     -32.78990000     -71.26700000
H      -47.72400000     -31.17480000     -71.07220000
C      -43.43590000     -34.96810000     -70.55030000
H      -42.73300000     -35.68360000     -71.04850000
H      -42.65620000     -34.20910000     -70.23270000
C      -44.38770000     -34.36520000     -71.55400000
H      -44.82600000     -35.09750000     -72.25340000
H      -45.31280000     -34.07660000     -70.99720000
C      -45.66480000     -31.36860000     -70.21170000
H      -45.09200000     -32.04990000     -69.55560000
H      -45.85180000     -30.47110000     -69.60880000
C      -44.88060000     -30.97290000     -71.46630000
C      -44.78090000     -29.67450000     -71.87380000
C      -44.11530000     -31.85510000     -72.31810000
H      -45.52010000     -28.94330000     -71.46490000
C      -43.47380000     -31.13450000     -73.32320000
C      -43.77100000     -33.24900000     -72.33370000
C      -42.80410000     -33.54040000     -73.25950000
S      -43.89290000     -29.41290000     -73.38930000
S      -42.39470000     -32.14970000     -74.25570000
H      -42.49590000     -34.58720000     -73.35630000
