40
Properties=species:S:1:pos:R:3 #=T CELL(abcABC):=T 1.889726e+02=T 90.00000=T Traj:=T positionsangstrom=T Step:=T 0=T Bead:=T pbc="F F F"
C      -46.96480000     -37.00400000     -71.23340000
C      -46.34280000     -36.34730000     -70.18360000
C      -47.06590000     -35.30060000     -69.60770000
C      -48.27480000     -34.82730000     -70.15690000
C      -48.80870000     -35.41810000     -71.26400000
C      -48.18620000     -36.58980000     -71.75830000
H      -46.44990000     -37.78870000     -71.66970000
H      -46.72210000     -34.73490000     -68.73420000
H      -49.76190000     -35.09880000     -71.68700000
H      -48.57540000     -37.08880000     -72.63240000
C      -49.00670000     -33.70110000     -69.48030000
H      -49.27440000     -34.04190000     -68.49370000
H      -49.95820000     -33.56680000     -69.98080000
C      -45.04090000     -36.81310000     -69.62080000
H      -45.26410000     -37.40190000     -68.74000000
H      -44.47310000     -37.36280000     -70.42910000
S      -48.12300000     -32.07840000     -69.42740000
S      -43.98890000     -35.47020000     -68.85980000
C      -46.96160000     -32.15960000     -70.86790000
H      -47.02920000     -33.27120000     -71.14790000
H      -47.52910000     -31.63520000     -71.67830000
C      -43.33430000     -34.40590000     -70.26700000
H      -42.25210000     -34.54620000     -70.32260000
H      -43.40510000     -33.41470000     -69.85550000
C      -44.20220000     -34.51140000     -71.57600000
H      -44.26080000     -35.49270000     -72.06750000
H      -45.27990000     -34.19610000     -71.36520000
C      -45.59310000     -31.47820000     -70.34570000
H      -45.16590000     -32.12510000     -69.52360000
H      -45.91170000     -30.59890000     -69.85340000
C      -44.67150000     -31.16480000     -71.53920000
C      -44.50440000     -29.83190000     -71.93170000
C      -43.95040000     -32.05680000     -72.37440000
H      -44.91170000     -28.95450000     -71.46700000
C      -43.33020000     -31.36720000     -73.40330000
C      -43.68360000     -33.45350000     -72.53090000
C      -42.94560000     -33.81390000     -73.62970000
S      -43.63180000     -29.64360000     -73.39530000
S      -42.31960000     -32.34380000     -74.42590000
H      -42.55450000     -34.79960000     -73.89640000
