40
Properties=species:S:1:pos:R:3 #=T CELL(abcABC):=T 1.889726e+02=T 90.00000=T Traj:=T positionsangstrom=T Step:=T 0=T Bead:=T pbc="F F F"
C      -47.21770000     -36.91520000     -71.02190000
C      -46.49130000     -36.21120000     -70.03470000
C      -47.07960000     -35.04420000     -69.55080000
C      -48.36710000     -34.67700000     -69.95900000
C      -49.11270000     -35.45110000     -70.84210000
C      -48.46480000     -36.52400000     -71.39410000
H      -46.73770000     -37.76100000     -71.60850000
H      -46.64830000     -34.51150000     -68.76110000
H      -50.10830000     -35.13250000     -71.07130000
H      -48.89240000     -37.08570000     -72.22110000
C      -48.99500000     -33.52750000     -69.25240000
H      -48.92980000     -33.60170000     -68.19310000
H      -50.05460000     -33.37710000     -69.44350000
C      -45.19800000     -36.81830000     -69.45200000
H      -45.43500000     -37.46530000     -68.57540000
H      -44.68270000     -37.35670000     -70.25260000
S      -48.09860000     -31.79740000     -69.63920000
S      -44.03880000     -35.53540000     -68.79440000
C      -47.12940000     -31.98920000     -71.10840000
H      -47.02560000     -32.98330000     -71.48230000
H      -47.41110000     -31.47980000     -72.07730000
C      -43.22160000     -34.86970000     -70.31920000
H      -42.40250000     -35.54830000     -70.60710000
H      -42.66160000     -33.99620000     -69.96610000
C      -44.07300000     -34.56990000     -71.52470000
H      -44.32320000     -35.40190000     -72.14490000
H      -45.01870000     -34.17120000     -71.27020000
C      -45.73720000     -31.55980000     -70.69870000
H      -45.22760000     -32.24620000     -70.01670000
H      -45.79730000     -30.60060000     -70.08320000
C      -44.66100000     -31.23340000     -71.72080000
C      -44.43760000     -29.87250000     -71.99560000
C      -43.84860000     -32.13330000     -72.49660000
H      -45.03850000     -29.01280000     -71.55210000
C      -43.15960000     -31.42880000     -73.46280000
C      -43.53450000     -33.55140000     -72.52090000
C      -42.72140000     -33.87930000     -73.55940000
S      -43.34240000     -29.65760000     -73.38950000
S      -42.36270000     -32.52480000     -74.61570000
H      -42.46480000     -34.91160000     -73.91180000
