40
Properties=species:S:1:pos:R:3 #=T CELL(abcABC):=T 1.889726e+02=T 90.00000=T Traj:=T positionsangstrom=T Step:=T 0=T Bead:=T pbc="F F F"
C      -47.65140000     -33.07090000     -74.54380000
C      -46.48600000     -32.81310000     -73.76600000
C      -45.57150000     -33.82100000     -73.67490000
C      -45.80170000     -35.14060000     -74.11280000
C      -46.90670000     -35.43670000     -74.86200000
C      -47.84340000     -34.33930000     -75.07600000
H      -48.32540000     -32.27380000     -74.86190000
H      -44.62160000     -33.60150000     -73.08880000
H      -47.14580000     -36.50260000     -75.19960000
H      -48.75890000     -34.58670000     -75.61460000
C      -44.77010000     -36.24370000     -73.82480000
H      -43.95710000     -36.20090000     -74.46330000
H      -45.09630000     -37.29620000     -73.98430000
C      -46.23440000     -31.55300000     -73.00950000
H      -45.35190000     -31.59730000     -72.44260000
H      -46.24860000     -30.71160000     -73.68190000
S      -44.07910000     -36.03560000     -72.10600000
S      -47.68000000     -31.14620000     -71.88020000
C      -45.56440000     -35.84170000     -70.99760000
H      -46.32120000     -35.10060000     -71.34460000
H      -46.03260000     -36.84780000     -71.09420000
C      -47.88900000     -32.71870000     -70.99740000
H      -47.25800000     -33.46590000     -71.56570000
H      -48.93980000     -32.94770000     -70.82590000
C      -47.27470000     -32.58760000     -69.53790000
H      -47.83200000     -31.78410000     -69.02240000
H      -47.42250000     -33.54490000     -69.08420000
C      -45.21830000     -35.63710000     -69.52790000
H      -44.78130000     -36.55980000     -69.23580000
H      -46.19840000     -35.60450000     -69.00220000
C      -44.32030000     -34.40140000     -69.32350000
C      -42.92390000     -34.62780000     -69.17410000
C      -44.63660000     -33.03760000     -69.44510000
H      -42.40430000     -35.56290000     -69.10270000
C      -43.43390000     -32.32460000     -69.33430000
C      -45.85670000     -32.19400000     -69.53040000
C      -45.52520000     -30.88680000     -69.46010000
S      -41.97260000     -33.15350000     -69.04270000
S      -43.80970000     -30.59590000     -69.31300000
H      -46.28320000     -30.07230000     -69.33650000
