40
Properties=species:S:1:pos:R:3 #=T CELL(abcABC):=T 1.889726e+02=T 90.00000=T Traj:=T positionsangstrom=T Step:=T 0=T Bead:=T pbc="F F F"
C      -47.18720000     -36.74180000     -70.96680000
C      -46.56870000     -36.15330000     -69.85360000
C      -47.16920000     -35.07190000     -69.22110000
C      -48.27630000     -34.47580000     -69.78130000
C      -48.84300000     -35.00750000     -70.93830000
C      -48.35850000     -36.20500000     -71.45630000
H      -46.74120000     -37.60680000     -71.43640000
H      -46.71210000     -34.62480000     -68.36520000
H      -49.70220000     -34.57170000     -71.41310000
H      -48.81810000     -36.61410000     -72.30970000
C      -48.78610000     -33.22480000     -69.09710000
H      -48.68020000     -33.37910000     -67.98200000
H      -49.86020000     -33.31660000     -69.26300000
C      -45.33880000     -36.76730000     -69.18530000
H      -45.60970000     -37.25270000     -68.24130000
H      -45.00900000     -37.66600000     -69.68950000
S      -48.13060000     -31.61860000     -69.64520000
S      -44.07720000     -35.46930000     -68.79870000
C      -46.94790000     -31.91540000     -71.02020000
H      -47.12520000     -32.92440000     -71.43560000
H      -47.34290000     -31.09510000     -71.70890000
C      -43.38550000     -35.07450000     -70.45370000
H      -42.97210000     -36.00230000     -70.91000000
H      -42.66670000     -34.29810000     -70.18120000
C      -44.39730000     -34.58190000     -71.53410000
H      -44.74490000     -35.45420000     -72.13590000
H      -45.28240000     -34.08930000     -71.17960000
C      -45.51140000     -31.70160000     -70.64380000
H      -45.26970000     -32.66280000     -70.28700000
H      -45.45810000     -31.01510000     -69.81410000
C      -44.68500000     -31.26200000     -71.82680000
C      -44.45780000     -29.98570000     -72.20120000
C      -43.88250000     -32.20430000     -72.63570000
H      -44.76700000     -29.07530000     -71.67140000
C      -43.12650000     -31.63400000     -73.64810000
C      -43.73860000     -33.61780000     -72.55450000
C      -42.89960000     -34.08420000     -73.62620000
S      -43.39770000     -29.84800000     -73.58980000
S      -42.18290000     -32.78100000     -74.55040000
H      -42.50970000     -35.10000000     -73.81070000
