40
Properties=species:S:1:pos:R:3 #=T CELL(abcABC):=T 1.889726e+02=T 90.00000=T Traj:=T positionsangstrom=T Step:=T 0=T Bead:=T pbc="F F F"
C      -45.35140000     -34.78830000     -67.72580000
C      -45.90130000     -33.57130000     -68.21380000
C      -46.98400000     -33.75280000     -69.08840000
C      -47.41760000     -35.01660000     -69.50030000
C      -46.82860000     -36.15600000     -69.03670000
C      -45.83100000     -36.00450000     -68.06740000
H      -44.67260000     -34.65740000     -66.86480000
H      -47.59180000     -32.87160000     -69.32710000
H      -47.26460000     -37.10280000     -69.35220000
H      -45.40310000     -36.89880000     -67.61270000
C      -48.75170000     -35.18600000     -70.24620000
H      -49.26040000     -34.26560000     -70.36180000
H      -49.45730000     -35.77950000     -69.66370000
C      -45.34970000     -32.31480000     -67.65350000
H      -46.00240000     -31.51710000     -67.38860000
H      -44.83580000     -32.46970000     -66.62780000
S      -48.50760000     -36.03830000     -71.90520000
S      -44.02620000     -31.52580000     -68.61740000
C      -47.71370000     -34.69370000     -72.90920000
H      -47.78120000     -35.01380000     -73.87600000
H      -48.21330000     -33.73780000     -72.89970000
C      -43.03360000     -32.98490000     -69.21690000
H      -43.07560000     -33.74390000     -68.44820000
H      -41.94660000     -32.72130000     -69.25110000
C      -43.63490000     -33.48680000     -70.58550000
H      -43.13690000     -34.47290000     -70.67580000
H      -44.68820000     -33.70330000     -70.55300000
C      -46.28120000     -34.47000000     -72.51510000
H      -45.86280000     -35.46810000     -72.61000000
H      -46.31150000     -34.05230000     -71.46310000
C      -45.57480000     -33.42620000     -73.38810000
C      -45.94360000     -33.00340000     -74.62940000
C      -44.29660000     -32.74210000     -73.00530000
H      -46.76380000     -33.51790000     -75.14710000
C      -43.85030000     -31.91340000     -73.99880000
C      -43.39430000     -32.74370000     -71.84970000
C      -42.37280000     -31.86390000     -72.04140000
S      -44.96130000     -31.77580000     -75.32330000
S      -42.34940000     -31.07270000     -73.61670000
H      -41.75470000     -31.57270000     -71.22310000
