40
Properties=species:S:1:pos:R:3 #=T CELL(abcABC):=T 1.889726e+02=T 90.00000=T Traj:=T positionsangstrom=T Step:=T 0=T Bead:=T pbc="F F F"
C      -47.06810000     -36.80210000     -70.82310000
C      -46.51320000     -36.14010000     -69.73480000
C      -47.09760000     -34.98240000     -69.24440000
C      -48.22210000     -34.40530000     -69.83840000
C      -48.66250000     -34.98150000     -71.05580000
C      -48.08330000     -36.16760000     -71.51250000
H      -46.52450000     -37.74990000     -71.14050000
H      -46.66390000     -34.53480000     -68.34170000
H      -49.48920000     -34.58870000     -71.61880000
H      -48.60910000     -36.69050000     -72.33460000
C      -48.98180000     -33.08990000     -69.30720000
H      -48.95750000     -33.26310000     -68.28640000
H      -50.03230000     -33.09330000     -69.62660000
C      -45.24840000     -36.69740000     -68.95930000
H      -45.66440000     -37.03190000     -67.99860000
H      -44.76780000     -37.52400000     -69.53520000
S      -48.11040000     -31.49300000     -69.64430000
S      -43.82540000     -35.45950000     -68.63000000
C      -46.99160000     -31.90120000     -71.12240000
H      -46.97600000     -32.98380000     -71.35510000
H      -47.22700000     -31.30900000     -72.02540000
C      -43.38740000     -35.00300000     -70.38610000
H      -42.90990000     -35.87110000     -70.82060000
H      -42.61340000     -34.23780000     -70.25300000
C      -44.45260000     -34.44620000     -71.25290000
H      -45.12030000     -35.22770000     -71.70420000
H      -45.13080000     -33.79080000     -70.68300000
C      -45.56980000     -31.38600000     -70.67920000
H      -45.08550000     -32.07410000     -69.92050000
H      -45.75810000     -30.51770000     -70.04360000
C      -44.72430000     -31.17350000     -71.93780000
C      -44.44430000     -29.97020000     -72.48840000
C      -43.95370000     -32.24140000     -72.56940000
H      -44.76200000     -28.96400000     -72.11830000
C      -43.30060000     -31.76130000     -73.68360000
C      -43.91400000     -33.66990000     -72.43270000
C      -43.17570000     -34.25120000     -73.48430000
S      -43.30960000     -30.04220000     -73.84710000
S      -42.46060000     -33.02350000     -74.53070000
H      -42.85130000     -35.32040000     -73.44090000
