40
Properties=species:S:1:pos:R:3 #=T CELL(abcABC):=T 1.889726e+02=T 90.00000=T Traj:=T positionsangstrom=T Step:=T 0=T Bead:=T pbc="F F F"
C      -47.18330000     -32.38540000     -74.46180000
C      -46.44280000     -32.36830000     -73.28740000
C      -45.36500000     -33.25960000     -73.02360000
C      -45.15410000     -34.27750000     -73.92850000
C      -45.80100000     -34.21340000     -75.17690000
C      -46.73300000     -33.30130000     -75.43180000
H      -47.98170000     -31.66670000     -74.73390000
H      -44.71770000     -33.27130000     -72.18770000
H      -45.61950000     -34.96930000     -75.94560000
H      -47.14180000     -33.20020000     -76.38850000
C      -44.06080000     -35.34980000     -73.80470000
H      -43.08490000     -34.79940000     -73.76440000
H      -44.00870000     -35.83700000     -74.72430000
C      -46.77710000     -31.30800000     -72.31090000
H      -46.02090000     -31.09490000     -71.60480000
H      -46.85490000     -30.35140000     -72.88760000
S      -44.16170000     -36.49680000     -72.41340000
S      -48.37060000     -31.62210000     -71.39670000
C      -45.63580000     -36.14200000     -71.45440000
H      -46.17670000     -35.25700000     -71.93260000
H      -46.30390000     -36.99720000     -71.46600000
C      -48.02550000     -33.29340000     -70.53700000
H      -47.43050000     -33.90360000     -71.15060000
H      -49.03450000     -33.67000000     -70.46060000
C      -47.32060000     -33.09570000     -69.20450000
H      -47.94290000     -32.66410000     -68.39330000
H      -47.31800000     -34.16090000     -68.84210000
C      -45.24750000     -35.85080000     -70.02730000
H      -44.81640000     -36.79550000     -69.60710000
H      -46.18560000     -35.79890000     -69.51280000
C      -44.33820000     -34.64970000     -69.73890000
C      -42.98730000     -34.80410000     -69.75140000
C      -44.76870000     -33.25830000     -69.58640000
H      -42.44620000     -35.74650000     -69.74960000
C      -43.65280000     -32.40040000     -69.63110000
C      -45.95830000     -32.50790000     -69.28820000
C      -45.69400000     -31.16420000     -69.03320000
S      -42.15540000     -33.28840000     -69.61360000
S      -43.99650000     -30.77400000     -69.14320000
H      -46.45820000     -30.60200000     -68.63530000
