40
Properties=species:S:1:pos:R:3 #=T CELL(abcABC):=T 1.889726e+02=T 90.00000=T Traj:=T positionsangstrom=T Step:=T 0=T Bead:=T pbc="F F F"
C      -44.40740000     -33.06370000     -67.64830000
C      -45.44540000     -33.99640000     -67.87400000
C      -46.65360000     -33.59270000     -68.49660000
C      -46.85680000     -32.23590000     -68.74290000
C      -45.90560000     -31.29550000     -68.49820000
C      -44.66320000     -31.71880000     -67.98920000
H      -43.42430000     -33.21740000     -67.26110000
H      -47.54800000     -34.25120000     -68.61880000
H      -46.10480000     -30.25540000     -68.76300000
H      -43.84920000     -31.01430000     -67.85720000
C      -48.21610000     -31.81390000     -69.24070000
H      -48.69170000     -31.24890000     -68.50270000
H      -48.84720000     -32.65770000     -69.46900000
C      -45.23580000     -35.53480000     -67.54300000
H      -44.25670000     -35.69340000     -67.13900000
H      -45.96650000     -35.98450000     -66.82880000
S      -48.24610000     -30.83120000     -70.73630000
S      -45.50260000     -36.67600000     -69.06310000
C      -46.93720000     -31.17910000     -71.92190000
H      -46.96390000     -30.34500000     -72.65960000
H      -45.98990000     -31.03950000     -71.38830000
C      -44.25320000     -36.01450000     -70.24300000
H      -43.84470000     -36.82380000     -70.83500000
H      -43.38070000     -35.56360000     -69.64070000
C      -44.88100000     -35.01260000     -71.20670000
H      -45.72150000     -35.47720000     -71.70910000
H      -45.25850000     -34.18810000     -70.58520000
C      -47.04170000     -32.57160000     -72.63980000
H      -48.03260000     -32.59790000     -73.13690000
H      -47.03880000     -33.37270000     -71.82320000
C      -45.84390000     -32.77480000     -73.58130000
C      -45.88620000     -32.20800000     -74.84000000
C      -44.62070000     -33.58790000     -73.36390000
H      -46.63880000     -31.55920000     -75.16700000
C      -43.73530000     -33.49940000     -74.46440000
C      -44.07160000     -34.37390000     -72.31740000
C      -42.72160000     -34.64730000     -72.49290000
S      -44.34960000     -32.55260000     -75.78820000
S      -42.18140000     -34.13280000     -74.09150000
H      -42.14590000     -35.24190000     -71.83870000
