40
Properties=species:S:1:pos:R:3 #=T CELL(abcABC):=T 1.889726e+02=T 90.00000=T Traj:=T positionsangstrom=T Step:=T 0=T Bead:=T pbc="F F F"
C      -44.85850000     -33.35850000     -67.42630000
C      -45.92690000     -34.19430000     -67.85800000
C      -47.04000000     -33.54990000     -68.39810000
C      -47.10740000     -32.13050000     -68.53710000
C      -46.08850000     -31.34500000     -67.92130000
C      -44.96000000     -31.97750000     -67.43260000
H      -43.95620000     -33.84540000     -67.07840000
H      -47.84970000     -34.12680000     -68.85370000
H      -45.90940000     -30.23220000     -68.07200000
H      -44.09080000     -31.41020000     -67.02880000
C      -48.13570000     -31.41220000     -69.34360000
H      -48.85150000     -30.87050000     -68.72030000
H      -48.60310000     -32.27250000     -69.83730000
C      -45.68790000     -35.66130000     -67.89610000
H      -44.64260000     -35.91950000     -67.77320000
H      -46.24890000     -36.17580000     -67.07050000
S      -47.54740000     -30.27820000     -70.67000000
S      -46.09560000     -36.56290000     -69.48900000
C      -46.06570000     -31.15010000     -71.52340000
H      -45.54880000     -30.32400000     -72.01360000
H      -45.34620000     -31.45980000     -70.77750000
C      -44.99970000     -36.01550000     -70.93930000
H      -45.73760000     -36.23030000     -71.69340000
H      -44.11970000     -36.60430000     -70.92510000
C      -44.57540000     -34.52410000     -70.88260000
H      -45.45860000     -33.86040000     -70.93710000
H      -43.85650000     -34.27560000     -70.07270000
C      -46.56640000     -32.20800000     -72.52270000
H      -47.40910000     -31.74230000     -73.06770000
H      -46.75450000     -33.15570000     -71.97600000
C      -45.57960000     -32.74140000     -73.58380000
C      -45.68520000     -32.25730000     -74.85740000
C      -44.44150000     -33.62420000     -73.36110000
H      -46.33330000     -31.46500000     -75.24860000
C      -43.69780000     -33.82060000     -74.52090000
C      -43.84000000     -34.29120000     -72.19170000
C      -42.59970000     -34.85440000     -72.54200000
S      -44.38710000     -32.92900000     -75.83160000
S      -42.09860000     -34.45750000     -74.20650000
H      -42.07700000     -35.50370000     -71.87610000
