40
Properties=species:S:1:pos:R:3 #=T CELL(abcABC):=T 1.889726e+02=T 90.00000=T Traj:=T positionsangstrom=T Step:=T 0=T Bead:=T pbc="F F F"
C      -45.21760000     -33.61410000     -66.91850000
C      -45.98740000     -34.17840000     -67.97480000
C      -46.84160000     -33.30080000     -68.69530000
C      -46.80110000     -31.93130000     -68.52800000
C      -45.91560000     -31.39450000     -67.56070000
C      -45.22750000     -32.23900000     -66.66050000
H      -44.62110000     -34.26360000     -66.27460000
H      -47.56190000     -33.62870000     -69.47510000
H      -45.86480000     -30.34350000     -67.28290000
H      -44.59840000     -31.87580000     -65.87260000
C      -47.67480000     -31.06840000     -69.41620000
H      -48.06200000     -30.26710000     -68.80570000
H      -48.50990000     -31.54920000     -69.87010000
C      -45.86790000     -35.65550000     -68.24870000
H      -44.80770000     -35.87630000     -68.35590000
H      -46.23070000     -36.29560000     -67.45540000
S      -46.76950000     -30.14480000     -70.73750000
S      -46.67090000     -36.18550000     -69.80930000
C      -45.81910000     -31.44680000     -71.54150000
H      -45.04850000     -30.86870000     -72.16680000
H      -45.31650000     -31.97670000     -70.74640000
C      -45.24940000     -36.09040000     -70.93000000
H      -45.67040000     -36.32340000     -71.91230000
H      -44.49680000     -36.93840000     -70.82520000
C      -44.57630000     -34.70100000     -70.91100000
H      -45.28210000     -33.91500000     -70.76340000
H      -43.92430000     -34.51720000     -70.07440000
C      -46.59700000     -32.45030000     -72.40730000
H      -47.43160000     -31.93310000     -72.94850000
H      -47.07030000     -33.20520000     -71.77170000
C      -45.66300000     -32.90040000     -73.50410000
C      -45.67480000     -32.18730000     -74.70600000
C      -44.51350000     -33.78970000     -73.34290000
H      -46.43700000     -31.61680000     -75.19670000
C      -43.72110000     -33.74090000     -74.51130000
C      -43.91580000     -34.49410000     -72.26460000
C      -42.73510000     -35.09870000     -72.68360000
S      -44.35440000     -32.65810000     -75.69800000
S      -42.27410000     -34.75430000     -74.34020000
H      -42.05930000     -35.61480000     -71.99740000
