40
Properties=species:S:1:pos:R:3 #=T CELL(abcABC):=T 1.889726e+02=T 90.00000=T Traj:=T positionsangstrom=T Step:=T 0=T Bead:=T pbc="F F F"
C      -45.51740000     -33.63330000     -66.72340000
C      -46.17010000     -34.12010000     -67.87790000
C      -46.86540000     -33.16420000     -68.67290000
C      -46.72090000     -31.76960000     -68.48690000
C      -45.96490000     -31.31860000     -67.44260000
C      -45.44290000     -32.26020000     -66.51980000
H      -45.03570000     -34.27730000     -66.00680000
H      -47.32350000     -33.50850000     -69.55330000
H      -45.75090000     -30.29560000     -67.46910000
H      -44.90570000     -31.99230000     -65.59740000
C      -47.54030000     -30.88870000     -69.37300000
H      -47.96720000     -30.11160000     -68.71180000
H      -48.31230000     -31.61060000     -69.80320000
C      -46.26290000     -35.61200000     -68.13540000
H      -45.27900000     -36.06480000     -67.92120000
H      -46.97240000     -36.04700000     -67.40440000
S      -46.55780000     -30.00300000     -70.66140000
S      -46.90350000     -36.06810000     -69.78440000
C      -45.54710000     -31.27410000     -71.56030000
H      -44.92120000     -30.68530000     -72.25290000
H      -44.83090000     -31.75070000     -70.93470000
C      -45.44120000     -36.26130000     -70.95380000
H      -45.91480000     -36.26700000     -71.96390000
H      -44.84160000     -37.06400000     -70.64270000
C      -44.46360000     -35.10650000     -71.00020000
H      -44.98590000     -34.15650000     -70.63640000
H      -43.61880000     -35.37490000     -70.35070000
C      -46.34340000     -32.42940000     -72.27870000
H      -47.22610000     -32.04530000     -72.71820000
H      -46.63230000     -33.17970000     -71.48450000
C      -45.54490000     -32.86320000     -73.47640000
C      -45.58600000     -32.25470000     -74.71540000
C      -44.44790000     -33.85350000     -73.39980000
H      -46.30430000     -31.44810000     -74.93620000
C      -43.72930000     -33.80330000     -74.54300000
C      -43.92230000     -34.77170000     -72.41620000
C      -42.78460000     -35.35060000     -72.89930000
S      -44.27360000     -32.71140000     -75.79530000
S      -42.22210000     -34.75890000     -74.49990000
H      -42.19840000     -36.12890000     -72.37720000
