40
Properties=species:S:1:pos:R:3 #=T CELL(abcABC):=T 1.889726e+02=T 90.00000=T Traj:=T positionsangstrom=T Step:=T 0=T Bead:=T pbc="F F F"
C      -46.41260000     -33.41070000     -68.19780000
C      -45.18880000     -34.07880000     -68.16880000
C      -43.96240000     -33.40430000     -68.28420000
C      -44.04020000     -32.05370000     -68.55250000
C      -45.25880000     -31.34150000     -68.53670000
C      -46.46160000     -32.02960000     -68.42650000
H      -47.39790000     -33.97400000     -68.18780000
H      -42.96500000     -33.92610000     -68.22100000
H      -45.28720000     -30.27060000     -68.92920000
H      -47.37680000     -31.41110000     -68.60200000
C      -42.79390000     -31.27630000     -68.58300000
H      -42.12920000     -31.61970000     -67.76350000
H      -43.05790000     -30.19690000     -68.51100000
C      -45.16010000     -35.55430000     -67.90080000
H      -44.20500000     -36.02240000     -67.98930000
H      -45.73200000     -35.74090000     -66.94520000
S      -41.90230000     -31.54660000     -70.33540000
S      -46.32510000     -36.52730000     -69.11900000
C      -43.20630000     -31.24160000     -71.60960000
H      -43.87070000     -30.48130000     -71.27570000
H      -42.60740000     -30.83990000     -72.45420000
C      -46.50370000     -35.38140000     -70.55770000
H      -46.48850000     -34.36210000     -70.15510000
H      -47.44850000     -35.75240000     -71.01360000
C      -45.41570000     -35.57460000     -71.63360000
H      -44.47420000     -35.09680000     -71.34970000
H      -45.18020000     -36.60700000     -71.82510000
C      -43.97290000     -32.46100000     -71.85850000
H      -44.54180000     -32.80890000     -70.97530000
H      -43.15930000     -33.22350000     -71.97880000
C      -44.96550000     -32.41000000     -72.99400000
C      -45.31700000     -31.28390000     -73.71020000
C      -45.78040000     -33.54910000     -73.43280000
H      -44.87870000     -30.28270000     -73.51760000
C      -46.55360000     -33.30160000     -74.53810000
C      -45.89550000     -34.88060000     -72.94680000
C      -46.70300000     -35.61510000     -73.76870000
S      -46.51150000     -31.59960000     -74.99260000
S      -47.45590000     -34.66380000     -75.00970000
H      -47.06730000     -36.55920000     -73.49580000
