40
Properties=species:S:1:pos:R:3 #=T CELL(abcABC):=T 1.889726e+02=T 90.00000=T Traj:=T positionsangstrom=T Step:=T 0=T Bead:=T pbc="F F F"
C      -45.73000000     -33.78880000     -66.90020000
C      -46.38190000     -34.16530000     -68.05780000
C      -47.02420000     -33.12010000     -68.78940000
C      -47.02480000     -31.76310000     -68.45660000
C      -46.27400000     -31.40890000     -67.29530000
C      -45.62520000     -32.39580000     -66.54520000
H      -45.18380000     -34.53740000     -66.31260000
H      -47.31370000     -33.31420000     -69.85280000
H      -46.09490000     -30.34800000     -66.96880000
H      -44.98410000     -32.14940000     -65.67060000
C      -47.53040000     -30.73220000     -69.39010000
H      -48.01660000     -29.89250000     -68.86720000
H      -48.20800000     -31.21420000     -70.14040000
C      -46.29010000     -35.52830000     -68.58780000
H      -45.22280000     -35.78080000     -68.78330000
H      -46.58470000     -36.23300000     -67.81510000
S      -46.08530000     -29.93520000     -70.35920000
S      -47.07400000     -35.96540000     -70.16890000
C      -45.24030000     -31.34870000     -71.13050000
H      -44.36820000     -30.92470000     -71.58620000
H      -44.82960000     -31.95530000     -70.31930000
C      -45.64640000     -35.98960000     -71.26060000
H      -45.97710000     -35.81720000     -72.26270000
H      -45.10160000     -36.99100000     -71.26970000
C      -44.56790000     -34.90120000     -70.94420000
H      -44.94770000     -34.05400000     -70.37110000
H      -43.72000000     -35.21650000     -70.23430000
C      -46.08120000     -32.05670000     -72.23790000
H      -46.70910000     -31.26810000     -72.66920000
H      -46.67750000     -32.89480000     -71.86530000
C      -45.23150000     -32.61410000     -73.36610000
C      -45.14260000     -31.97330000     -74.55540000
C      -44.33100000     -33.76960000     -73.24750000
H      -45.70350000     -31.07830000     -74.82840000
C      -43.65780000     -33.92980000     -74.51320000
C      -43.88460000     -34.65740000     -72.24620000
C      -42.91610000     -35.55620000     -72.79610000
S      -44.09540000     -32.72060000     -75.72560000
S      -42.62320000     -35.37030000     -74.50460000
H      -42.49870000     -36.36390000     -72.24530000
