40
Properties=species:S:1:pos:R:3 #=T CELL(abcABC):=T 1.889726e+02=T 90.00000=T Traj:=T positionsangstrom=T Step:=T 0=T Bead:=T pbc="F F F"
C      -43.49280000     -36.73030000     -70.95540000
C      -43.83130000     -35.36290000     -71.04980000
C      -44.67520000     -34.86250000     -72.03470000
C      -45.24460000     -35.74570000     -73.01150000
C      -44.97610000     -37.05820000     -72.85900000
C      -44.12390000     -37.58420000     -71.85560000
H      -42.67170000     -36.91300000     -70.33700000
H      -44.58160000     -33.81860000     -72.09340000
H      -45.34730000     -37.74690000     -73.60480000
H      -43.91800000     -38.56790000     -71.88790000
C      -46.08910000     -35.12480000     -74.08870000
H      -46.19830000     -35.77270000     -74.97140000
H      -45.68180000     -34.15800000     -74.33910000
C      -43.15450000     -34.38010000     -70.06340000
H      -42.18850000     -34.83740000     -69.74470000
H      -42.98700000     -33.34200000     -70.44740000
S      -47.92130000     -34.83170000     -73.55900000
S      -44.05500000     -34.39520000     -68.42410000
C      -47.84420000     -34.01580000     -71.90330000
H      -48.68810000     -34.45170000     -71.27470000
H      -46.94690000     -34.25160000     -71.31060000
C      -45.87640000     -34.29860000     -68.75430000
H      -46.35370000     -34.76710000     -67.90780000
H      -46.07700000     -34.87500000     -69.65230000
C      -46.54950000     -32.89830000     -68.82890000
H      -47.55730000     -33.07150000     -69.23260000
H      -46.59820000     -32.56190000     -67.82370000
C      -47.93530000     -32.46270000     -72.00540000
H      -48.48360000     -32.16150000     -71.09930000
H      -48.63880000     -32.21380000     -72.79160000
C      -46.59540000     -31.87840000     -72.13970000
C      -46.14140000     -31.28110000     -73.28620000
C      -45.74540000     -31.60080000     -71.02450000
H      -46.57380000     -31.29890000     -74.32720000
C      -44.69480000     -30.74350000     -71.36810000
C      -45.72680000     -31.88320000     -69.61980000
C      -44.63280000     -31.29070000     -68.98400000
S      -44.62130000     -30.37320000     -73.07330000
S      -43.69380000     -30.32690000     -70.05250000
H      -44.39520000     -31.28980000     -67.93400000
