40
Properties=species:S:1:pos:R:3 #=T CELL(abcABC):=T 1.889726e+02=T 90.00000=T Traj:=T positionsangstrom=T Step:=T 0=T Bead:=T pbc="F F F"
C      -43.81040000     -36.84700000     -71.13940000
C      -43.92240000     -35.44840000     -71.10030000
C      -44.67010000     -34.80870000     -72.08920000
C      -45.07710000     -35.51870000     -73.23280000
C      -44.95120000     -36.93030000     -73.25170000
C      -44.32790000     -37.56040000     -72.22210000
H      -43.32980000     -37.42390000     -70.33140000
H      -44.75640000     -33.70890000     -72.09740000
H      -45.35720000     -37.45150000     -74.08900000
H      -44.33430000     -38.64490000     -72.20460000
C      -45.93450000     -34.79750000     -74.31880000
H      -45.94720000     -35.29140000     -75.25740000
H      -45.62460000     -33.76610000     -74.43800000
C      -43.32020000     -34.64970000     -70.03690000
H      -42.25670000     -35.04000000     -69.83420000
H      -43.18810000     -33.57710000     -70.45320000
S      -47.73360000     -34.61450000     -73.86660000
S      -44.27820000     -34.64590000     -68.48690000
C      -47.83170000     -34.37500000     -71.99740000
H      -48.80640000     -34.75120000     -71.76850000
H      -46.99980000     -34.98660000     -71.49990000
C      -46.02410000     -34.19180000     -68.81520000
H      -46.63980000     -34.84790000     -68.22230000
H      -46.25140000     -34.38160000     -69.81950000
C      -46.23350000     -32.72840000     -68.44110000
H      -47.26680000     -32.46410000     -68.63530000
H      -46.01180000     -32.57940000     -67.37310000
C      -47.76350000     -32.87900000     -71.51360000
H      -47.85590000     -32.97100000     -70.39470000
H      -48.66300000     -32.44270000     -72.01340000
C      -46.51220000     -32.09050000     -71.83710000
C      -46.31650000     -31.44470000     -73.02810000
C      -45.62530000     -31.57530000     -70.78830000
H      -46.79890000     -31.65010000     -73.95740000
C      -44.77740000     -30.60910000     -71.26650000
C      -45.45400000     -31.81000000     -69.34280000
C      -44.35220000     -31.19700000     -68.79210000
S      -44.87030000     -30.33060000     -72.97920000
S      -43.56290000     -30.19740000     -70.02590000
H      -43.97780000     -31.44160000     -67.82240000
