40
Properties=species:S:1:pos:R:3 #=T CELL(abcABC):=T 1.889726e+02=T 90.00000=T Traj:=T positionsangstrom=T Step:=T 0=T Bead:=T pbc="F F F"
C      -43.83980000     -36.69150000     -71.23400000
C      -43.98480000     -35.25790000     -71.11230000
C      -44.44530000     -34.57240000     -72.22190000
C      -45.09360000     -35.28210000     -73.26190000
C      -45.07330000     -36.68360000     -73.27450000
C      -44.38460000     -37.36220000     -72.26680000
H      -43.21920000     -37.26100000     -70.53270000
H      -44.49290000     -33.49320000     -72.24770000
H      -45.56390000     -37.26590000     -74.03150000
H      -44.33610000     -38.50240000     -72.27300000
C      -45.84790000     -34.58910000     -74.32160000
H      -45.71640000     -35.12200000     -75.27800000
H      -45.53260000     -33.54450000     -74.53610000
C      -43.42170000     -34.49910000     -69.87530000
H      -42.41690000     -34.77770000     -69.66500000
H      -43.46590000     -33.48530000     -69.92750000
S      -47.69080000     -34.36160000     -74.02610000
S      -44.34200000     -35.09440000     -68.30480000
C      -47.87150000     -34.36740000     -72.21240000
H      -48.77000000     -34.88400000     -71.78270000
H      -47.06170000     -34.95530000     -71.80500000
C      -45.94100000     -34.35450000     -68.84100000
H      -46.76330000     -34.92730000     -68.37590000
H      -45.96380000     -34.48170000     -69.96980000
C      -46.22170000     -32.82860000     -68.45640000
H      -47.23290000     -32.58410000     -68.70810000
H      -46.11820000     -32.73720000     -67.33320000
C      -47.84110000     -32.96180000     -71.60890000
H      -47.99370000     -33.06010000     -70.55920000
H      -48.57420000     -32.28610000     -71.94790000
C      -46.56040000     -32.15260000     -71.71820000
C      -46.28190000     -31.52840000     -72.87810000
C      -45.57840000     -31.72050000     -70.70190000
H      -46.91590000     -31.73650000     -73.72470000
C      -44.68630000     -30.79940000     -71.23110000
C      -45.30310000     -31.93780000     -69.28810000
C      -44.28620000     -31.18400000     -68.82950000
S      -44.98080000     -30.43030000     -72.92970000
S      -43.51990000     -30.19470000     -70.04460000
H      -43.99410000     -31.21170000     -67.77240000
