40
Properties=species:S:1:pos:R:3 #=T CELL(abcABC):=T 1.889726e+02=T 90.00000=T Traj:=T positionsangstrom=T Step:=T 0=T Bead:=T pbc="F F F"
C      -43.81260000     -37.18970000     -71.22860000
C      -43.72460000     -35.81280000     -70.86490000
C      -44.07210000     -34.82170000     -71.80860000
C      -44.66760000     -35.17890000     -73.02090000
C      -44.94140000     -36.52260000     -73.23740000
C      -44.47240000     -37.53090000     -72.39360000
H      -43.41460000     -37.95950000     -70.60400000
H      -43.77120000     -33.83560000     -71.54090000
H      -45.38970000     -36.82940000     -74.16070000
H      -44.63650000     -38.48250000     -72.66360000
C      -45.01660000     -34.08470000     -73.96780000
H      -44.71150000     -34.20070000     -75.01860000
H      -44.67130000     -33.10680000     -73.65410000
C      -43.22440000     -35.33930000     -69.52300000
H      -42.47970000     -35.94560000     -69.04850000
H      -42.80340000     -34.28290000     -69.51790000
S      -46.89680000     -33.82780000     -74.12810000
S      -44.61440000     -35.27870000     -68.26150000
C      -47.75450000     -33.82870000     -72.50850000
H      -48.70670000     -34.42800000     -72.57550000
H      -47.14650000     -34.40260000     -71.79580000
C      -46.22280000     -34.97550000     -69.20290000
H      -46.96070000     -35.65200000     -68.71740000
H      -46.06530000     -35.42100000     -70.23530000
C      -46.60300000     -33.50080000     -69.23660000
H      -47.54680000     -33.41410000     -69.68350000
H      -46.71070000     -33.15820000     -68.18720000
C      -48.12360000     -32.42550000     -72.10820000
H      -48.57370000     -32.41040000     -71.07750000
H      -48.91790000     -32.02510000     -72.70440000
C      -46.81810000     -31.55710000     -72.06220000
C      -46.72100000     -30.34180000     -72.69630000
C      -45.82250000     -31.74010000     -71.02060000
H      -47.39340000     -29.91950000     -73.47460000
C      -44.90000000     -30.68990000     -71.08030000
C      -45.61370000     -32.58680000     -69.83360000
C      -44.50090000     -32.19980000     -69.17120000
S      -45.22870000     -29.50050000     -72.32390000
S      -43.66920000     -30.83700000     -69.90150000
H      -44.02440000     -32.59320000     -68.32900000
