40
Properties=species:S:1:pos:R:3 #=T CELL(abcABC):=T 1.889726e+02=T 90.00000=T Traj:=T positionsangstrom=T Step:=T 0=T Bead:=T pbc="F F F"
C      -44.01700000     -37.08710000     -71.23730000
C      -43.70460000     -35.81050000     -70.86580000
C      -43.97590000     -34.74050000     -71.78740000
C      -44.57310000     -35.01970000     -73.00930000
C      -44.81030000     -36.40790000     -73.39200000
C      -44.47480000     -37.41700000     -72.53360000
H      -43.78080000     -37.87990000     -70.46800000
H      -43.87430000     -33.71760000     -71.38850000
H      -45.22480000     -36.57300000     -74.36540000
H      -44.72970000     -38.41800000     -72.62690000
C      -44.98350000     -33.84530000     -73.81530000
H      -44.37510000     -33.88340000     -74.70180000
H      -44.80260000     -32.94960000     -73.24280000
C      -43.26340000     -35.54630000     -69.47710000
H      -42.58320000     -36.29920000     -69.12560000
H      -42.79660000     -34.58920000     -69.42800000
S      -46.88750000     -34.10210000     -74.33540000
S      -44.70380000     -35.51100000     -68.31620000
C      -47.60210000     -33.74450000     -72.62530000
H      -48.45010000     -34.39320000     -72.57100000
H      -46.77720000     -33.98340000     -71.99610000
C      -46.18450000     -35.08330000     -69.37610000
H      -46.98970000     -35.77560000     -69.19060000
H      -45.85860000     -35.20700000     -70.38350000
C      -46.71260000     -33.59100000     -69.31300000
H      -47.66110000     -33.42400000     -69.94330000
H      -46.92400000     -33.35500000     -68.21710000
C      -48.00590000     -32.29960000     -72.31670000
H      -48.68640000     -32.26620000     -71.44270000
H      -48.49550000     -31.97450000     -73.24440000
C      -46.89390000     -31.37460000     -71.93560000
C      -46.67940000     -30.23430000     -72.65440000
C      -45.92670000     -31.60230000     -70.85270000
H      -47.21660000     -29.86020000     -73.50020000
C      -44.92830000     -30.61650000     -70.90830000
C      -45.70490000     -32.55220000     -69.68780000
C      -44.60370000     -32.14840000     -68.98990000
S      -45.14690000     -29.40710000     -72.23020000
S      -43.67350000     -30.89990000     -69.77130000
H      -44.22550000     -32.73510000     -68.17260000
