40
Properties=species:S:1:pos:R:3 #=T CELL(abcABC):=T 1.889726e+02=T 90.00000=T Traj:=T positionsangstrom=T Step:=T 0=T Bead:=T pbc="F F F"
C      -46.48440000     -32.63370000     -75.17690000
C      -46.47560000     -32.18780000     -73.87080000
C      -45.35910000     -32.53260000     -73.03480000
C      -44.38730000     -33.42250000     -73.46460000
C      -44.40490000     -33.88180000     -74.81070000
C      -45.42730000     -33.47840000     -75.64450000
H      -47.18800000     -32.20850000     -75.88540000
H      -45.31390000     -32.17270000     -72.02290000
H      -43.71320000     -34.58710000     -75.25840000
H      -45.42270000     -33.82200000     -76.66210000
C      -43.27050000     -33.82330000     -72.61050000
H      -43.16720000     -33.26100000     -71.66950000
H      -42.36130000     -33.54590000     -73.22060000
C      -47.60810000     -31.58180000     -73.16000000
H      -47.31760000     -31.01730000     -72.25280000
H      -48.22010000     -30.90330000     -73.72880000
S      -43.15920000     -35.73460000     -72.37190000
S      -48.70980000     -32.87810000     -72.39570000
C      -44.67580000     -36.25970000     -71.34630000
H      -45.60160000     -35.76320000     -71.65620000
H      -44.81530000     -37.31870000     -71.51320000
C      -47.67650000     -34.25230000     -71.69570000
H      -46.70620000     -34.36360000     -72.11790000
H      -48.20880000     -35.17070000     -71.92830000
C      -47.58870000     -34.03640000     -70.18450000
H      -48.64660000     -33.88110000     -69.77370000
H      -47.35520000     -35.02010000     -69.80900000
C      -44.56990000     -36.03320000     -69.83170000
H      -43.79620000     -36.69600000     -69.49280000
H      -45.48860000     -36.35920000     -69.28440000
C      -44.23050000     -34.60740000     -69.38500000
C      -42.99610000     -34.28720000     -68.86650000
C      -45.03470000     -33.40560000     -69.55290000
H      -42.19380000     -34.95910000     -68.69360000
C      -44.38100000     -32.27870000     -69.09870000
C      -46.50470000     -33.08170000     -69.75840000
C      -46.85500000     -31.79940000     -69.46580000
S      -42.75850000     -32.60670000     -68.37390000
S      -45.45830000     -30.93310000     -68.86660000
H      -47.75530000     -31.20320000     -69.54520000
