40
Properties=species:S:1:pos:R:3 #=T CELL(abcABC):=T 1.889726e+02=T 90.00000=T Traj:=T positionsangstrom=T Step:=T 0=T Bead:=T pbc="F F F"
C      -46.42880000     -32.64440000     -75.21520000
C      -46.41670000     -32.21780000     -73.86880000
C      -45.33020000     -32.56600000     -73.03350000
C      -44.32920000     -33.41760000     -73.53570000
C      -44.35340000     -33.81650000     -74.85280000
C      -45.38270000     -33.45130000     -75.68670000
H      -47.36290000     -32.61980000     -75.77890000
H      -45.24490000     -32.22670000     -72.00890000
H      -43.50500000     -34.37250000     -75.21590000
H      -45.26740000     -33.86690000     -76.64320000
C      -43.27440000     -33.95570000     -72.57530000
H      -43.51440000     -33.60450000     -71.57010000
H      -42.27510000     -33.74030000     -72.92510000
C      -47.60510000     -31.52830000     -73.16410000
H      -47.30180000     -30.84020000     -72.36060000
H      -48.17300000     -31.02230000     -73.92270000
S      -43.05490000     -35.78420000     -72.26750000
S      -48.77200000     -32.83050000     -72.54180000
C      -44.59100000     -36.19240000     -71.44220000
H      -45.34870000     -35.75070000     -72.09930000
H      -44.71650000     -37.28290000     -71.63340000
C      -47.68860000     -34.17230000     -71.78470000
H      -46.74450000     -34.06280000     -72.32940000
H      -48.14820000     -35.12000000     -71.95850000
C      -47.48390000     -34.14090000     -70.21410000
H      -48.31880000     -34.01030000     -69.59810000
H      -47.05200000     -35.12840000     -69.97170000
C      -44.64430000     -36.03830000     -69.90820000
H      -43.95560000     -36.70050000     -69.45970000
H      -45.68120000     -36.44160000     -69.68040000
C      -44.42350000     -34.61860000     -69.31890000
C      -43.09890000     -34.31170000     -68.95890000
C      -45.20970000     -33.40950000     -69.23500000
H      -42.45430000     -35.12900000     -68.81130000
C      -44.46060000     -32.32300000     -68.80140000
C      -46.55410000     -33.07170000     -69.71110000
C      -46.85110000     -31.73550000     -69.50440000
S      -42.80220000     -32.65210000     -68.33170000
S      -45.39520000     -30.84650000     -68.89160000
H      -47.82910000     -31.25040000     -69.51680000
