40
Properties=species:S:1:pos:R:3 #=T CELL(abcABC):=T 1.889726e+02=T 90.00000=T Traj:=T positionsangstrom=T Step:=T 0=T Bead:=T pbc="F F F"
C      -46.23400000     -32.83630000     -74.96580000
C      -45.97120000     -32.32020000     -73.65690000
C      -44.76930000     -32.66920000     -73.04870000
C      -43.91720000     -33.68290000     -73.52480000
C      -44.25100000     -34.30720000     -74.73850000
C      -45.41310000     -33.85840000     -75.48250000
H      -47.04060000     -32.48930000     -75.57990000
H      -44.50110000     -32.34930000     -72.02060000
H      -43.85390000     -35.26380000     -75.17040000
H      -45.52720000     -34.12880000     -76.45190000
C      -42.74250000     -34.10260000     -72.70330000
H      -42.58020000     -33.55250000     -71.78170000
H      -41.82460000     -33.86810000     -73.26370000
C      -46.90520000     -31.33500000     -72.97170000
H      -46.48730000     -30.88040000     -72.09830000
H      -47.20260000     -30.54750000     -73.66140000
S      -42.87390000     -35.86090000     -72.26160000
S      -48.62500000     -32.11920000     -72.39100000
C      -44.69510000     -35.96130000     -71.81620000
H      -45.24190000     -35.11900000     -72.29260000
H      -45.13480000     -36.87650000     -72.13430000
C      -48.13090000     -33.83280000     -71.86020000
H      -47.18330000     -34.09630000     -72.39400000
H      -48.87150000     -34.46760000     -72.19250000
C      -47.82370000     -34.01230000     -70.33470000
H      -48.80080000     -33.75590000     -69.76380000
H      -47.57640000     -35.10770000     -70.16990000
C      -44.94810000     -35.88380000     -70.26010000
H      -44.37560000     -36.66050000     -69.73190000
H      -46.04100000     -36.22810000     -70.08730000
C      -44.56340000     -34.58740000     -69.55760000
C      -43.34900000     -34.44810000     -68.96190000
C      -45.38810000     -33.40560000     -69.51360000
H      -42.65520000     -35.22920000     -68.67720000
C      -44.69660000     -32.35870000     -68.88790000
C      -46.75640000     -33.08920000     -69.80660000
C      -47.01130000     -31.83040000     -69.39510000
S      -43.10460000     -32.86880000     -68.31720000
S      -45.63130000     -30.96090000     -68.76390000
H      -47.97190000     -31.35790000     -69.47780000
