40
Properties=species:S:1:pos:R:3 #=T CELL(abcABC):=T 1.889726e+02=T 90.00000=T Traj:=T positionsangstrom=T Step:=T 0=T Bead:=T pbc="F F F"
C      -46.29700000     -32.80870000     -74.80720000
C      -45.91370000     -32.24010000     -73.56840000
C      -44.83960000     -32.81510000     -72.85550000
C      -43.92460000     -33.64650000     -73.49470000
C      -44.20730000     -34.05220000     -74.83230000
C      -45.42920000     -33.76550000     -75.37140000
H      -47.22450000     -32.60920000     -75.26020000
H      -44.48020000     -32.36280000     -71.95650000
H      -43.44070000     -34.61680000     -75.38910000
H      -45.59800000     -34.27840000     -76.26510000
C      -42.72560000     -34.22320000     -72.74210000
H      -42.47010000     -33.64610000     -71.85670000
H      -41.74000000     -34.19050000     -73.32150000
C      -46.89750000     -31.24710000     -72.96530000
H      -46.44500000     -30.95390000     -72.01510000
H      -47.03510000     -30.35810000     -73.61600000
S      -43.02180000     -36.03430000     -72.26320000
S      -48.51220000     -32.03900000     -72.52900000
C      -44.66730000     -36.09280000     -71.55800000
H      -45.27170000     -35.41730000     -72.11380000
H      -45.03540000     -37.06300000     -71.85960000
C      -48.06490000     -33.80050000     -72.00270000
H      -47.25300000     -34.15030000     -72.50410000
H      -48.95890000     -34.45990000     -72.25770000
C      -47.80690000     -34.04080000     -70.46490000
H      -48.64970000     -33.92510000     -69.87750000
H      -47.56910000     -35.08730000     -70.27080000
C      -44.82760000     -35.99400000     -70.07950000
H      -44.06060000     -36.61000000     -69.57260000
H      -45.74490000     -36.39940000     -69.84030000
C      -44.53410000     -34.58810000     -69.52440000
C      -43.24110000     -34.41980000     -69.07720000
C      -45.40340000     -33.46350000     -69.55150000
H      -42.34360000     -34.91910000     -69.25510000
C      -44.76320000     -32.40240000     -68.87490000
C      -46.77210000     -33.07780000     -69.86760000
C      -47.06480000     -31.80870000     -69.46530000
S      -43.09210000     -32.74630000     -68.49170000
S      -45.72800000     -30.99290000     -68.59370000
H      -47.97330000     -31.25680000     -69.70480000
