40
Properties=species:S:1:pos:R:3 #=T CELL(abcABC):=T 1.889726e+02=T 90.00000=T Traj:=T positionsangstrom=T Step:=T 0=T Bead:=T pbc="F F F"
C      -45.84590000     -32.40880000     -74.78740000
C      -45.62000000     -32.11770000     -73.43910000
C      -44.65180000     -32.82590000     -72.69750000
C      -43.88390000     -33.78060000     -73.40380000
C      -44.06950000     -34.07820000     -74.71040000
C      -45.06730000     -33.34720000     -75.41900000
H      -46.61020000     -31.86690000     -75.38820000
H      -44.34930000     -32.49070000     -71.68320000
H      -43.51270000     -34.89360000     -75.14360000
H      -45.28220000     -33.50020000     -76.50260000
C      -42.81880000     -34.49590000     -72.66040000
H      -42.53890000     -33.95530000     -71.73010000
H      -41.85090000     -34.58600000     -73.16270000
C      -46.64180000     -31.19880000     -72.72080000
H      -46.20350000     -30.79500000     -71.78320000
H      -46.93540000     -30.34020000     -73.31480000
S      -43.18050000     -36.27480000     -72.20910000
S      -48.24380000     -32.11110000     -72.40870000
C      -45.00050000     -36.25900000     -71.62880000
H      -45.50130000     -35.58080000     -72.21740000
H      -45.40830000     -37.22440000     -71.80640000
C      -47.84040000     -33.84680000     -71.93710000
H      -46.91190000     -34.08760000     -72.36190000
H      -48.60400000     -34.52370000     -72.35910000
C      -47.94400000     -33.98830000     -70.40220000
H      -49.01050000     -33.71290000     -70.12930000
H      -47.68680000     -35.01980000     -70.11350000
C      -45.10300000     -35.98240000     -70.14010000
H      -44.42090000     -36.59220000     -69.59710000
H      -46.10810000     -36.21700000     -69.72290000
C      -44.69190000     -34.63110000     -69.64670000
C      -43.36660000     -34.41430000     -69.22630000
C      -45.54830000     -33.47740000     -69.49850000
H      -42.67120000     -35.24040000     -68.96740000
C      -44.86830000     -32.36000000     -69.07540000
C      -46.94340000     -33.10910000     -69.70790000
C      -47.23050000     -31.81570000     -69.39930000
S      -43.17530000     -32.70060000     -68.75160000
S      -45.83200000     -30.87140000     -68.77600000
H      -48.12410000     -31.22060000     -69.60870000
