40
Properties=species:S:1:pos:R:3 #=T CELL(abcABC):=T 1.889726e+02=T 90.00000=T Traj:=T positionsangstrom=T Step:=T 0=T Bead:=T pbc="F F F"
C      -41.42580000     -33.10220000     -70.73280000
C      -42.11840000     -34.06550000     -70.00950000
C      -42.70530000     -35.13510000     -70.74100000
C      -42.68320000     -35.26190000     -72.12080000
C      -42.06600000     -34.21510000     -72.87010000
C      -41.32930000     -33.16470000     -72.13390000
H      -40.94210000     -32.31140000     -70.25630000
H      -43.20600000     -35.96790000     -70.28280000
H      -42.22020000     -34.13080000     -73.92840000
H      -40.92180000     -32.37260000     -72.77030000
C      -43.36780000     -36.40900000     -72.77470000
H      -42.88820000     -37.43200000     -72.61030000
H      -43.40030000     -36.30640000     -73.87880000
C      -42.15060000     -33.91410000     -68.52980000
H      -41.82210000     -34.87580000     -68.00270000
H      -41.49120000     -33.10120000     -68.19420000
S      -45.09060000     -36.69600000     -72.08560000
S      -43.86120000     -33.84580000     -67.85380000
C      -45.95800000     -35.19560000     -72.79820000
H      -45.22380000     -34.48100000     -72.52360000
H      -46.16680000     -35.34510000     -73.85740000
C      -44.52800000     -32.50310000     -68.93880000
H      -43.74710000     -31.86950000     -69.35210000
H      -44.93500000     -31.82690000     -68.23420000
C      -45.40250000     -33.02570000     -70.00950000
H      -44.82410000     -33.52910000     -70.81550000
H      -46.07990000     -33.82090000     -69.51830000
C      -47.35550000     -34.98930000     -72.14360000
H      -47.24860000     -35.03930000     -71.07130000
H      -47.96920000     -35.71500000     -72.54570000
C      -47.84550000     -33.60700000     -72.39730000
C      -48.86270000     -33.26640000     -73.28710000
C      -47.29670000     -32.40560000     -71.68660000
H      -49.46280000     -33.94390000     -73.95440000
C      -47.95360000     -31.30200000     -72.24330000
C      -46.22910000     -31.99590000     -70.79640000
C      -46.11110000     -30.65610000     -70.67370000
S      -49.34250000     -31.57550000     -73.13000000
S      -47.28300000     -29.80000000     -71.61290000
H      -45.45750000     -30.14890000     -69.98450000
