40
Properties=species:S:1:pos:R:3 #=T CELL(abcABC):=T 1.889726e+02=T 90.00000=T Traj:=T positionsangstrom=T Step:=T 0=T Bead:=T pbc="F F F"
C      -41.87690000     -33.13570000     -70.92500000
C      -42.29200000     -34.22510000     -70.12640000
C      -42.80740000     -35.35400000     -70.76010000
C      -42.94010000     -35.49850000     -72.15490000
C      -42.55130000     -34.40160000     -72.95840000
C      -42.00210000     -33.27040000     -72.34520000
H      -41.39840000     -32.26920000     -70.54030000
H      -43.03860000     -36.21510000     -70.08670000
H      -42.64640000     -34.49430000     -74.01710000
H      -41.57330000     -32.54010000     -73.06610000
C      -43.51170000     -36.71210000     -72.90490000
H      -42.88320000     -37.55870000     -72.60910000
H      -43.39840000     -36.46420000     -73.95740000
C      -42.12630000     -34.03840000     -68.59970000
H      -41.95330000     -34.98830000     -68.10000000
H      -41.33380000     -33.39980000     -68.36310000
S      -45.28860000     -37.00560000     -72.38610000
S      -43.65570000     -33.39460000     -67.66650000
C      -46.09950000     -35.34590000     -72.92510000
H      -45.43060000     -34.49640000     -73.05970000
H      -46.51230000     -35.60620000     -73.99070000
C      -44.30710000     -32.12710000     -68.79210000
H      -43.50210000     -31.50680000     -69.20760000
H      -44.92030000     -31.43580000     -68.20460000
C      -45.25200000     -32.84110000     -69.85080000
H      -44.55900000     -33.41490000     -70.42860000
H      -45.90310000     -33.59600000     -69.41710000
C      -47.19100000     -35.01910000     -71.96610000
H      -46.76150000     -35.29340000     -71.00180000
H      -48.09450000     -35.67490000     -72.11460000
C      -47.72000000     -33.59750000     -72.07670000
C      -48.79360000     -33.33030000     -72.93270000
C      -47.13900000     -32.33680000     -71.59240000
H      -49.41810000     -34.11620000     -73.32630000
C      -47.71630000     -31.22180000     -72.17920000
C      -46.05830000     -31.89380000     -70.71010000
C      -45.99450000     -30.56220000     -70.65840000
S      -49.11270000     -31.54880000     -73.17180000
S      -47.12850000     -29.68690000     -71.62370000
H      -45.35220000     -29.79580000     -70.12250000
