40
Properties=species:S:1:pos:R:3 #=T CELL(abcABC):=T 1.889726e+02=T 90.00000=T Traj:=T positionsangstrom=T Step:=T 0=T Bead:=T pbc="F F F"
C      -41.99760000     -32.92450000     -71.66010000
C      -42.13440000     -33.93240000     -70.62910000
C      -42.64440000     -35.17730000     -70.82820000
C      -42.96980000     -35.51980000     -72.18040000
C      -42.77550000     -34.58520000     -73.23880000
C      -42.32530000     -33.29460000     -72.97830000
H      -41.80040000     -31.92200000     -71.38050000
H      -42.77280000     -35.88630000     -70.02850000
H      -43.16560000     -34.88350000     -74.25110000
H      -42.43040000     -32.67090000     -73.85280000
C      -43.62820000     -36.88690000     -72.45870000
H      -43.20200000     -37.74400000     -71.93500000
H      -43.67300000     -37.21200000     -73.46300000
C      -41.81510000     -33.52670000     -69.19310000
H      -40.98660000     -34.21080000     -68.89380000
H      -41.31360000     -32.51150000     -69.19910000
S      -45.44860000     -36.90670000     -71.87110000
S      -43.22080000     -33.73620000     -68.02190000
C      -46.08820000     -35.32210000     -72.52220000
H      -45.38120000     -34.58400000     -72.24480000
H      -46.20430000     -35.33610000     -73.63060000
C      -44.49600000     -32.64720000     -68.72230000
H      -44.05590000     -31.72430000     -69.24310000
H      -45.10380000     -32.18990000     -67.92690000
C      -45.43710000     -33.14990000     -69.76100000
H      -44.84370000     -33.70710000     -70.47620000
H      -46.21100000     -33.89840000     -69.38520000
C      -47.43920000     -34.96100000     -71.91160000
H      -47.45380000     -35.23470000     -70.86230000
H      -48.19590000     -35.64290000     -72.21830000
C      -47.83610000     -33.49030000     -72.14590000
C      -48.81060000     -33.12080000     -73.03860000
C      -47.16580000     -32.32100000     -71.56110000
H      -49.57270000     -33.78470000     -73.52510000
C      -47.62190000     -31.10360000     -72.10980000
C      -46.18540000     -32.05600000     -70.50470000
C      -46.04130000     -30.71100000     -70.25130000
S      -48.93280000     -31.33910000     -73.22910000
S      -47.09700000     -29.70710000     -71.25010000
H      -45.47450000     -30.18940000     -69.49760000
