40
Properties=species:S:1:pos:R:3 #=T CELL(abcABC):=T 1.889726e+02=T 90.00000=T Traj:=T positionsangstrom=T Step:=T 0=T Bead:=T pbc="F F F"
C      -41.66090000     -32.98240000     -71.78760000
C      -42.05550000     -33.92260000     -70.78400000
C      -42.67660000     -35.15170000     -71.08370000
C      -43.12260000     -35.32140000     -72.41500000
C      -42.82280000     -34.37590000     -73.39130000
C      -42.01610000     -33.20790000     -73.06500000
H      -41.10830000     -32.08270000     -71.42510000
H      -42.76510000     -35.88710000     -70.30050000
H      -43.15580000     -34.57580000     -74.43480000
H      -41.74810000     -32.50590000     -73.86260000
C      -43.85560000     -36.58930000     -72.70110000
H      -43.25990000     -37.49480000     -72.59600000
H      -44.06350000     -36.65380000     -73.76150000
C      -41.72800000     -33.69840000     -69.30320000
H      -40.96900000     -34.40350000     -68.87510000
H      -41.40040000     -32.67560000     -69.16570000
S      -45.41880000     -36.73440000     -71.72480000
S      -43.13450000     -33.95540000     -68.24310000
C      -46.33630000     -35.37820000     -72.45520000
H      -45.68430000     -34.55290000     -72.64650000
H      -46.72210000     -35.70580000     -73.46820000
C      -44.31710000     -32.59440000     -68.73470000
H      -43.63490000     -31.82250000     -69.16240000
H      -44.72220000     -32.15890000     -67.75260000
C      -45.36810000     -33.07700000     -69.80790000
H      -44.79250000     -33.65030000     -70.53470000
H      -45.98090000     -33.91660000     -69.35840000
C      -47.51730000     -34.99420000     -71.59530000
H      -47.27300000     -35.07260000     -70.54560000
H      -48.36960000     -35.59920000     -71.77730000
C      -47.89120000     -33.51730000     -71.86930000
C      -48.87750000     -33.24060000     -72.76380000
C      -47.27150000     -32.30530000     -71.34520000
H      -49.45090000     -33.94170000     -73.28530000
C      -47.86940000     -31.16270000     -71.88680000
C      -46.17240000     -32.00050000     -70.49790000
C      -45.93930000     -30.65430000     -70.43020000
S      -49.04700000     -31.51990000     -73.05600000
S      -47.11600000     -29.70170000     -71.24020000
H      -45.16350000     -30.18950000     -69.86190000
