40
Properties=species:S:1:pos:R:3 #=T CELL(abcABC):=T 1.889726e+02=T 90.00000=T Traj:=T positionsangstrom=T Step:=T 0=T Bead:=T pbc="F F F"
C      -41.74620000     -33.06960000     -71.61850000
C      -42.16470000     -34.06500000     -70.69850000
C      -42.80970000     -35.23990000     -71.18230000
C      -43.07470000     -35.36390000     -72.57780000
C      -42.88860000     -34.27500000     -73.44290000
C      -42.20700000     -33.17620000     -72.97900000
H      -41.20100000     -32.17860000     -71.28250000
H      -43.13740000     -36.02820000     -70.53710000
H      -43.11320000     -34.44650000     -74.48590000
H      -41.91250000     -32.37540000     -73.66130000
C      -43.82740000     -36.58730000     -73.09710000
H      -43.21250000     -37.45020000     -72.78110000
H      -43.84380000     -36.56140000     -74.18220000
C      -41.76670000     -34.04220000     -69.23540000
H      -41.15770000     -34.88720000     -68.89950000
H      -41.07370000     -33.17990000     -69.01760000
S      -45.51760000     -36.77600000     -72.33030000
S      -43.20620000     -33.86790000     -68.01260000
C      -46.28390000     -35.14040000     -72.72080000
H      -45.46370000     -34.40910000     -72.66050000
H      -46.61000000     -35.16930000     -73.75730000
C      -44.17810000     -32.53970000     -68.70410000
H      -43.51970000     -31.93550000     -69.40230000
H      -44.47850000     -31.81180000     -67.90260000
C      -45.40150000     -33.06020000     -69.50970000
H      -45.09560000     -33.96500000     -70.13920000
H      -46.06280000     -33.39480000     -68.72760000
C      -47.36710000     -34.88060000     -71.65490000
H      -47.05800000     -35.16010000     -70.65880000
H      -48.22640000     -35.48250000     -71.93920000
C      -47.90970000     -33.49120000     -71.78450000
C      -48.96200000     -33.18600000     -72.56460000
C      -47.23480000     -32.31670000     -71.21790000
H      -49.61420000     -33.89420000     -73.14850000
C      -47.83510000     -31.11660000     -71.62310000
C      -46.05110000     -32.04110000     -70.40900000
C      -45.68010000     -30.70440000     -70.49510000
S      -49.20840000     -31.49860000     -72.71900000
S      -46.84580000     -29.73060000     -71.34060000
H      -44.83180000     -30.32100000     -70.01130000
