40
Properties=species:S:1:pos:R:3 #=T CELL(abcABC):=T 1.889726e+02=T 90.00000=T Traj:=T positionsangstrom=T Step:=T 0=T Bead:=T pbc="F F F"
C      -42.05590000     -32.93070000     -71.35430000
C      -42.28230000     -34.16150000     -70.54590000
C      -42.93220000     -35.27040000     -71.14810000
C      -43.20330000     -35.26840000     -72.51230000
C      -42.89120000     -34.16680000     -73.28880000
C      -42.39860000     -32.95020000     -72.72110000
H      -41.47550000     -32.11500000     -70.88990000
H      -43.14040000     -36.16600000     -70.56610000
H      -43.07000000     -34.19100000     -74.31240000
H      -42.19570000     -32.10540000     -73.33300000
C      -43.74920000     -36.54050000     -73.17050000
H      -43.15920000     -37.42410000     -72.92950000
H      -43.59410000     -36.37860000     -74.27970000
C      -41.75520000     -34.25240000     -69.12230000
H      -41.43550000     -35.26630000     -68.92920000
H      -41.04920000     -33.49470000     -68.90910000
S      -45.53210000     -36.90230000     -72.72610000
S      -43.09330000     -33.87570000     -67.97430000
C      -46.25630000     -35.18900000     -72.74040000
H      -45.47010000     -34.50800000     -72.49920000
H      -46.67980000     -34.80210000     -73.66860000
C      -44.14570000     -32.57040000     -68.83380000
H      -43.40510000     -32.01170000     -69.38220000
H      -44.53130000     -31.94740000     -68.06520000
C      -45.25100000     -33.16630000     -69.68720000
H      -44.84210000     -33.92370000     -70.42240000
H      -45.92380000     -33.73660000     -69.08320000
C      -47.34530000     -34.87780000     -71.66360000
H      -46.88120000     -34.88710000     -70.66080000
H      -48.19790000     -35.52290000     -71.73590000
C      -47.84460000     -33.44490000     -71.86470000
C      -49.00620000     -33.16360000     -72.48260000
C      -47.14210000     -32.30900000     -71.29230000
H      -49.67060000     -33.74510000     -73.18090000
C      -47.74310000     -31.12810000     -71.69760000
C      -46.03280000     -32.03370000     -70.45360000
C      -45.68290000     -30.69110000     -70.37230000
S      -49.21790000     -31.42110000     -72.59950000
S      -46.81030000     -29.75040000     -71.32940000
H      -44.92370000     -30.15110000     -69.84750000
