40
Properties=species:S:1:pos:R:3 #=T CELL(abcABC):=T 1.889726e+02=T 90.00000=T Traj:=T positionsangstrom=T Step:=T 0=T Bead:=T pbc="F F F"
C      -41.90980000     -33.19930000     -71.26240000
C      -42.09160000     -34.46520000     -70.59530000
C      -42.78040000     -35.45610000     -71.27630000
C      -43.25110000     -35.31830000     -72.58010000
C      -43.05430000     -34.08420000     -73.22160000
C      -42.38760000     -32.98820000     -72.57490000
H      -41.36530000     -32.44130000     -70.71600000
H      -42.96300000     -36.39180000     -70.68160000
H      -43.21950000     -34.06310000     -74.34920000
H      -42.19480000     -32.07070000     -73.14210000
C      -43.80250000     -36.53400000     -73.29490000
H      -43.30670000     -37.46410000     -72.86490000
H      -43.59500000     -36.51180000     -74.33330000
C      -41.75750000     -34.66030000     -69.16370000
H      -41.58950000     -35.72840000     -68.90160000
H      -40.88240000     -34.10390000     -68.77810000
S      -45.58280000     -36.80140000     -72.77340000
S      -43.15180000     -34.14070000     -68.05440000
C      -46.24850000     -35.03990000     -72.98230000
H      -45.37860000     -34.39490000     -72.88410000
H      -46.60600000     -34.86480000     -73.98090000
C      -43.94070000     -32.69040000     -68.95550000
H      -43.25970000     -32.07040000     -69.51980000
H      -44.28080000     -32.05360000     -68.15830000
C      -45.09760000     -33.08720000     -69.93400000
H      -44.68220000     -33.49860000     -70.86780000
H      -45.70530000     -33.88840000     -69.40960000
C      -47.21840000     -34.72950000     -71.84620000
H      -46.80010000     -35.04640000     -70.93480000
H      -47.99640000     -35.41550000     -72.07890000
C      -47.73780000     -33.31390000     -71.88910000
C      -48.83830000     -32.96660000     -72.60620000
C      -47.19470000     -32.17970000     -71.18730000
H      -49.44380000     -33.59320000     -73.14560000
C      -47.94910000     -31.02860000     -71.43410000
C      -46.01130000     -31.94120000     -70.35370000
C      -45.65610000     -30.57800000     -70.38540000
S      -49.28080000     -31.32920000     -72.52520000
S      -46.98530000     -29.58290000     -70.99200000
H      -44.75560000     -30.07220000     -69.94830000
