40
Properties=species:S:1:pos:R:3 #=T CELL(abcABC):=T 1.889726e+02=T 90.00000=T Traj:=T positionsangstrom=T Step:=T 0=T Bead:=T pbc="F F F"
C      -47.03830000     -36.69050000     -72.57480000
C      -46.63650000     -35.82110000     -71.51890000
C      -45.45490000     -35.10930000     -71.66150000
C      -44.70340000     -35.17610000     -72.83020000
C      -45.05830000     -36.08520000     -73.80210000
C      -46.21060000     -36.86170000     -73.62860000
H      -48.02170000     -37.15170000     -72.44680000
H      -45.20370000     -34.44400000     -70.83170000
H      -44.28460000     -36.22820000     -74.59470000
H      -46.46460000     -37.50040000     -74.50000000
C      -43.40380000     -34.43560000     -72.97030000
H      -42.58740000     -35.05300000     -73.45070000
H      -42.97170000     -33.91030000     -72.02310000
C      -47.58980000     -35.55880000     -70.31690000
H      -47.92740000     -36.57770000     -70.02830000
H      -46.93770000     -35.18890000     -69.48160000
S      -43.62820000     -33.14210000     -74.34910000
S      -48.85500000     -34.26940000     -70.59080000
C      -45.17700000     -32.34460000     -73.84150000
H      -45.63050000     -31.93440000     -74.73880000
H      -45.68300000     -33.15680000     -73.36070000
C      -48.06590000     -32.80060000     -71.35790000
H      -48.81180000     -32.49050000     -71.99710000
H      -47.30640000     -33.11470000     -72.04830000
C      -47.55360000     -31.66930000     -70.40570000
H      -47.46450000     -30.78580000     -71.07960000
H      -48.22930000     -31.47350000     -69.52030000
C      -44.91320000     -31.13400000     -72.92440000
H      -45.79580000     -30.48550000     -72.69610000
H      -44.20580000     -30.42330000     -73.39620000
C      -44.23060000     -31.47190000     -71.59010000
C      -42.88010000     -31.37150000     -71.48820000
C      -44.88440000     -31.79620000     -70.28940000
H      -42.12420000     -31.12090000     -72.33730000
C      -43.80910000     -32.09280000     -69.32810000
C      -46.19340000     -32.05940000     -69.81280000
C      -46.13810000     -32.59840000     -68.53380000
S      -42.21310000     -31.71850000     -69.90250000
S      -44.52780000     -32.72640000     -67.88370000
H      -47.07400000     -32.83660000     -67.95440000
