40
Properties=species:S:1:pos:R:3 #=T CELL(abcABC):=T 1.889726e+02=T 90.00000=T Traj:=T positionsangstrom=T Step:=T 0=T Bead:=T pbc="F F F"
C      -47.24160000     -36.32180000     -72.03250000
C      -46.48430000     -35.42530000     -71.27110000
C      -45.24830000     -34.98100000     -71.81830000
C      -44.64950000     -35.52750000     -72.96730000
C      -45.43330000     -36.53640000     -73.63940000
C      -46.66610000     -36.96280000     -73.18800000
H      -48.05850000     -36.82530000     -71.54030000
H      -44.76940000     -34.13160000     -71.35890000
H      -45.08600000     -37.04040000     -74.60130000
H      -47.31050000     -37.74760000     -73.71870000
C      -43.38920000     -35.00940000     -73.51130000
H      -42.79680000     -35.80100000     -74.05380000
H      -42.57940000     -34.55860000     -72.77900000
C      -46.91760000     -34.77640000     -70.00040000
H      -47.15370000     -35.59000000     -69.36050000
H      -46.09830000     -34.26090000     -69.52690000
S      -43.46340000     -33.67020000     -74.78480000
S      -48.49630000     -33.80140000     -70.27320000
C      -44.73250000     -32.41000000     -74.15970000
H      -44.99730000     -31.79490000     -75.03970000
H      -45.61680000     -32.94470000     -73.88720000
C      -48.09440000     -32.62640000     -71.68040000
H      -48.99710000     -32.48590000     -72.22400000
H      -47.39900000     -33.19950000     -72.24250000
C      -47.40130000     -31.35140000     -71.18550000
H      -47.02060000     -30.83170000     -72.00960000
H      -48.06510000     -30.70240000     -70.60490000
C      -44.33980000     -31.47900000     -72.97910000
H      -45.23950000     -30.83020000     -72.79090000
H      -43.62150000     -30.76970000     -73.18310000
C      -44.00310000     -31.90100000     -71.55220000
C      -42.69830000     -32.13160000     -71.13820000
C      -44.88150000     -31.84800000     -70.41610000
H      -42.00210000     -32.12970000     -72.00490000
C      -44.11840000     -32.03500000     -69.19370000
C      -46.28790000     -31.69240000     -70.16630000
C      -46.55200000     -31.74540000     -68.77660000
S      -42.46430000     -32.38190000     -69.48650000
S      -45.17280000     -32.14190000     -67.78950000
H      -47.61610000     -31.57680000     -68.49360000
