40
Properties=species:S:1:pos:R:3 #=T CELL(abcABC):=T 1.889726e+02=T 90.00000=T Traj:=T positionsangstrom=T Step:=T 0=T Bead:=T pbc="F F F"
C      -47.51340000     -36.49990000     -71.91280000
C      -46.95220000     -35.44520000     -71.23760000
C      -45.69020000     -35.02180000     -71.54080000
C      -44.99730000     -35.62460000     -72.65740000
C      -45.69140000     -36.42760000     -73.56500000
C      -46.95120000     -36.87370000     -73.10490000
H      -48.50310000     -36.80000000     -71.61150000
H      -45.08760000     -34.31460000     -70.92650000
H      -45.21750000     -36.85530000     -74.45590000
H      -47.50130000     -37.54100000     -73.71400000
C      -43.52250000     -35.24260000     -72.79330000
H      -42.94460000     -36.12950000     -72.81100000
H      -43.31660000     -34.60800000     -71.90920000
C      -47.76700000     -34.84610000     -70.13950000
H      -48.43320000     -35.54800000     -69.56390000
H      -47.09600000     -34.45300000     -69.36200000
S      -43.09240000     -34.26300000     -74.41990000
S      -48.76660000     -33.38960000     -70.58050000
C      -44.31650000     -32.87670000     -74.21340000
H      -44.41660000     -32.36820000     -75.24220000
H      -45.25690000     -33.35260000     -73.95540000
C      -47.97640000     -32.52410000     -71.88160000
H      -48.67730000     -32.06250000     -72.57280000
H      -47.35560000     -33.20890000     -72.56710000
C      -47.07250000     -31.32360000     -71.44440000
H      -46.45240000     -31.01080000     -72.30550000
H      -47.80820000     -30.51890000     -71.13160000
C      -43.98240000     -31.78030000     -73.14200000
H      -44.86390000     -31.04450000     -73.15440000
H      -43.16770000     -31.12150000     -73.39380000
C      -43.76760000     -32.00100000     -71.64520000
C      -42.44400000     -32.10590000     -71.20770000
C      -44.69760000     -31.84530000     -70.55090000
H      -41.55430000     -32.29360000     -71.69190000
C      -44.07920000     -32.01540000     -69.29620000
C      -46.13010000     -31.59100000     -70.31710000
C      -46.41730000     -31.59770000     -68.99620000
S      -42.38660000     -32.23170000     -69.46230000
S      -45.02010000     -31.73330000     -67.89810000
H      -47.41790000     -31.50360000     -68.56070000
