40
Properties=species:S:1:pos:R:3 #=T CELL(abcABC):=T 1.889726e+02=T 90.00000=T Traj:=T positionsangstrom=T Step:=T 0=T Bead:=T pbc="F F F"
C      -47.81870000     -36.17510000     -72.35670000
C      -47.17970000     -35.39230000     -71.33270000
C      -45.78770000     -35.31970000     -71.20640000
C      -44.99450000     -35.83220000     -72.21290000
C      -45.58670000     -36.59660000     -73.22770000
C      -46.95780000     -36.76330000     -73.25190000
H      -48.89240000     -36.18790000     -72.37430000
H      -45.39160000     -34.84010000     -70.36690000
H      -45.04000000     -37.17100000     -73.98890000
H      -47.33090000     -37.49390000     -73.94970000
C      -43.49420000     -35.65740000     -72.29200000
H      -43.07780000     -36.60380000     -72.59880000
H      -42.99690000     -35.40740000     -71.39270000
C      -47.95840000     -34.68960000     -70.22220000
H      -48.72210000     -35.42860000     -69.86610000
H      -47.27800000     -34.57750000     -69.34360000
S      -43.02940000     -34.38000000     -73.56990000
S      -48.81980000     -33.10380000     -70.63780000
C      -44.35040000     -33.18660000     -73.74670000
H      -44.60960000     -33.03860000     -74.79560000
H      -45.26400000     -33.56290000     -73.24050000
C      -47.79580000     -32.40190000     -72.09830000
H      -48.57390000     -32.07750000     -72.92230000
H      -47.08370000     -33.16010000     -72.49900000
C      -47.02840000     -31.16670000     -71.66620000
H      -46.49480000     -30.67240000     -72.54320000
H      -47.81120000     -30.44760000     -71.38420000
C      -44.03780000     -31.76290000     -73.27380000
H      -44.83220000     -31.00420000     -73.45920000
H      -43.14380000     -31.35180000     -73.90910000
C      -43.72960000     -31.72830000     -71.80960000
C      -42.43290000     -32.02280000     -71.45820000
C      -44.62700000     -31.70460000     -70.71330000
H      -41.62010000     -32.10970000     -72.23210000
C      -43.98420000     -32.01720000     -69.53850000
C      -46.03040000     -31.37740000     -70.53670000
C      -46.38620000     -31.40640000     -69.18470000
S      -42.30380000     -32.43960000     -69.81130000
S      -45.01860000     -31.80900000     -68.13700000
H      -47.37640000     -31.20840000     -68.82420000
