40
Properties=species:S:1:pos:R:3 #=T CELL(abcABC):=T 1.889726e+02=T 90.00000=T Traj:=T positionsangstrom=T Step:=T 0=T Bead:=T pbc="F F F"
C      -47.83340000     -36.04500000     -72.10670000
C      -47.30240000     -35.25130000     -71.10660000
C      -45.89440000     -35.04400000     -71.03990000
C      -45.03070000     -35.75110000     -71.87690000
C      -45.56960000     -36.56230000     -72.86570000
C      -46.94030000     -36.77200000     -72.96400000
H      -48.92280000     -36.30110000     -72.16960000
H      -45.54080000     -34.31830000     -70.27690000
H      -44.91060000     -37.02330000     -73.60070000
H      -47.46470000     -37.37290000     -73.76660000
C      -43.55740000     -35.48450000     -71.92420000
H      -42.89170000     -36.27150000     -71.75120000
H      -43.36570000     -34.72430000     -71.21900000
C      -48.20610000     -34.44930000     -70.18340000
H      -49.05530000     -35.07430000     -69.87460000
H      -47.60440000     -34.10380000     -69.35070000
S      -43.04130000     -34.89700000     -73.61740000
S      -49.05000000     -32.95300000     -71.06270000
C      -44.17180000     -33.40080000     -73.90540000
H      -44.12830000     -33.37260000     -74.98610000
H      -45.20790000     -33.64970000     -73.65320000
C      -47.77760000     -32.44100000     -72.17690000
H      -48.31250000     -32.21500000     -73.09940000
H      -47.08270000     -33.31170000     -72.29500000
C      -46.91910000     -31.18510000     -71.79080000
H      -46.41210000     -30.92730000     -72.71770000
H      -47.56670000     -30.30920000     -71.54140000
C      -43.81250000     -32.01800000     -73.38200000
H      -44.60790000     -31.26420000     -73.70250000
H      -42.82660000     -31.73280000     -73.79420000
C      -43.64280000     -31.86540000     -71.86050000
C      -42.35690000     -32.05530000     -71.47470000
C      -44.56020000     -31.70720000     -70.78430000
H      -41.58020000     -32.27410000     -72.20580000
C      -43.96510000     -31.99460000     -69.60000000
C      -45.99070000     -31.49760000     -70.60270000
C      -46.36090000     -31.52690000     -69.26500000
S      -42.19790000     -32.12360000     -69.77800000
S      -45.01340000     -31.83440000     -68.18240000
H      -47.32780000     -31.47100000     -68.79980000
