40
Properties=species:S:1:pos:R:3 #=T CELL(abcABC):=T 1.889726e+02=T 90.00000=T Traj:=T positionsangstrom=T Step:=T 0=T Bead:=T pbc="F F F"
C      -45.85130000     -33.89050000     -67.40540000
C      -44.82880000     -34.46480000     -68.18010000
C      -43.78040000     -33.63990000     -68.57270000
C      -43.85910000     -32.26940000     -68.35830000
C      -44.96370000     -31.64880000     -67.81110000
C      -45.93380000     -32.48310000     -67.20380000
H      -46.61140000     -34.51650000     -66.99280000
H      -42.92490000     -34.03130000     -69.18390000
H      -44.88300000     -30.58300000     -67.57040000
H      -46.56930000     -32.01850000     -66.51960000
C      -42.62950000     -31.40870000     -68.72850000
H      -41.79210000     -31.53760000     -68.09230000
H      -42.83850000     -30.31990000     -68.56870000
C      -44.69890000     -35.98150000     -68.31000000
H      -43.70360000     -36.40050000     -68.65960000
H      -44.88640000     -36.50450000     -67.33420000
S      -41.95990000     -31.59190000     -70.47230000
S      -46.07090000     -36.65700000     -69.32390000
C      -43.41590000     -31.20520000     -71.56110000
H      -44.03100000     -30.43820000     -71.09320000
H      -42.99880000     -30.77100000     -72.47280000
C      -46.33660000     -35.27420000     -70.69310000
H      -46.32500000     -34.37280000     -70.11120000
H      -47.40040000     -35.43250000     -70.93960000
C      -45.48030000     -35.39660000     -71.98380000
H      -44.40010000     -35.08160000     -71.79660000
H      -45.40180000     -36.45320000     -72.08260000
C      -44.35860000     -32.37730000     -71.78330000
H      -44.95840000     -32.44690000     -70.86530000
H      -43.75710000     -33.30680000     -71.93560000
C      -45.26350000     -32.18970000     -72.99350000
C      -45.57900000     -31.02530000     -73.65070000
C      -46.00020000     -33.31450000     -73.50300000
H      -45.14880000     -30.07050000     -73.44350000
C      -46.81230000     -33.04270000     -74.60270000
C      -46.10490000     -34.73250000     -73.12960000
C      -47.06080000     -35.40590000     -73.90530000
S      -46.71470000     -31.32960000     -74.98540000
S      -47.74480000     -34.37110000     -75.22590000
H      -47.40010000     -36.46860000     -73.78770000
