40
Properties=species:S:1:pos:R:3 #=T CELL(abcABC):=T 1.889726e+02=T 90.00000=T Traj:=T positionsangstrom=T Step:=T 0=T Bead:=T pbc="F F F"
C      -47.97650000     -36.24850000     -71.54180000
C      -47.39420000     -35.07740000     -71.11490000
C      -46.04350000     -34.98440000     -71.20100000
C      -45.22930000     -36.08080000     -71.71450000
C      -45.80540000     -37.24000000     -72.11560000
C      -47.25840000     -37.35110000     -72.04950000
H      -49.03550000     -36.30020000     -71.41030000
H      -45.58700000     -34.11960000     -70.75870000
H      -45.33730000     -38.00830000     -72.70140000
H      -47.81630000     -38.21870000     -72.43210000
C      -43.72140000     -35.93250000     -71.78990000
H      -43.31780000     -36.92750000     -71.61070000
H      -43.34740000     -35.24750000     -71.00290000
C      -48.15540000     -33.95780000     -70.38890000
H      -49.00100000     -34.32740000     -69.82800000
H      -47.53070000     -33.49210000     -69.66990000
S      -42.99860000     -35.22340000     -73.38340000
S      -48.92900000     -32.56490000     -71.43930000
C      -44.10180000     -33.80710000     -73.85840000
H      -44.19610000     -33.82480000     -74.91370000
H      -45.11220000     -34.01320000     -73.57310000
C      -47.56070000     -32.34060000     -72.78500000
H      -48.01010000     -31.99390000     -73.70160000
H      -47.02750000     -33.31650000     -72.97790000
C      -46.66780000     -31.21850000     -72.30450000
H      -45.87230000     -30.93090000     -73.07950000
H      -47.24030000     -30.34490000     -72.16490000
C      -43.63480000     -32.45820000     -73.27550000
H      -44.36100000     -31.70870000     -73.63430000
H      -42.61360000     -32.20360000     -73.76360000
C      -43.46140000     -32.27300000     -71.80690000
C      -42.22880000     -32.47980000     -71.12750000
C      -44.45620000     -31.75240000     -70.96720000
H      -41.42610000     -33.07120000     -71.62520000
C      -43.93400000     -31.59150000     -69.69460000
C      -45.83700000     -31.32550000     -71.00650000
C      -46.27160000     -30.82070000     -69.76370000
S      -42.33950000     -32.18080000     -69.45790000
S      -45.11510000     -31.04290000     -68.52060000
H      -47.27980000     -30.49100000     -69.65640000
