40
Properties=species:S:1:pos:R:3 #=T CELL(abcABC):=T 1.889726e+02=T 90.00000=T Traj:=T positionsangstrom=T Step:=T 0=T Bead:=T pbc="F F F"
C      -47.97580000     -35.94020000     -71.36640000
C      -47.21390000     -34.89890000     -70.73550000
C      -45.80070000     -35.11790000     -70.76230000
C      -45.14630000     -36.06300000     -71.52710000
C      -45.94500000     -37.07000000     -72.09520000
C      -47.34660000     -37.00290000     -71.97870000
H      -49.00640000     -35.82820000     -71.46350000
H      -45.00600000     -34.48550000     -70.36790000
H      -45.42650000     -37.80190000     -72.82430000
H      -47.99580000     -37.65180000     -72.53650000
C      -43.64510000     -36.04560000     -71.65970000
H      -43.19850000     -37.06820000     -71.49840000
H      -43.16160000     -35.47900000     -70.86470000
C      -47.96090000     -33.66040000     -70.28010000
H      -48.79300000     -33.88350000     -69.64680000
H      -47.31400000     -33.03360000     -69.61300000
S      -43.10450000     -35.49700000     -73.38380000
S      -48.64090000     -32.68260000     -71.74120000
C      -44.08310000     -33.98890000     -73.61490000
H      -44.31110000     -33.97180000     -74.71950000
H      -44.99860000     -34.18220000     -73.12270000
C      -47.22760000     -32.32010000     -72.74720000
H      -47.54040000     -32.29460000     -73.75130000
H      -46.63860000     -33.14290000     -72.67990000
C      -46.51050000     -30.98390000     -72.50810000
H      -45.83620000     -30.79770000     -73.36910000
H      -47.11950000     -30.01470000     -72.49280000
C      -43.58310000     -32.56930000     -73.27750000
H      -44.13600000     -31.84920000     -73.95410000
H      -42.55830000     -32.49450000     -73.60710000
C      -43.56570000     -32.29800000     -71.83950000
C      -42.50510000     -32.80250000     -71.13300000
C      -44.49890000     -31.61910000     -71.04640000
H      -41.51050000     -33.05100000     -71.47000000
C      -44.09800000     -31.64820000     -69.69170000
C      -45.78590000     -31.03720000     -71.19220000
C      -46.29710000     -30.53560000     -70.02020000
S      -42.63320000     -32.56100000     -69.42180000
S      -45.28170000     -30.81850000     -68.66080000
H      -47.25150000     -30.05210000     -69.87020000
