40
Properties=species:S:1:pos:R:3 #=T CELL(abcABC):=T 1.889726e+02=T 90.00000=T Traj:=T positionsangstrom=T Step:=T 0=T Bead:=T pbc="F F F"
C      -47.91050000     -35.93010000     -71.53640000
C      -47.16250000     -34.88890000     -70.90900000
C      -45.79030000     -34.99060000     -70.92490000
C      -45.08230000     -36.07420000     -71.49470000
C      -45.85810000     -37.12960000     -71.98780000
C      -47.24980000     -37.07200000     -71.93410000
H      -49.02010000     -36.04080000     -71.50090000
H      -45.19120000     -34.24100000     -70.47410000
H      -45.31440000     -37.99190000     -72.26600000
H      -47.80210000     -37.92330000     -72.27770000
C      -43.63010000     -36.00830000     -71.56360000
H      -43.14570000     -36.94370000     -71.54480000
H      -43.27470000     -35.32140000     -70.77840000
C      -47.93360000     -33.69400000     -70.34430000
H      -48.89120000     -33.98320000     -69.80880000
H      -47.31180000     -33.13070000     -69.69180000
S      -43.13320000     -35.48720000     -73.24760000
S      -48.48010000     -32.50830000     -71.66100000
C      -44.17810000     -34.10220000     -73.81320000
H      -44.37420000     -34.15220000     -74.89540000
H      -45.17970000     -34.24410000     -73.45210000
C      -47.05280000     -32.37660000     -72.90190000
H      -47.47170000     -32.41320000     -73.97640000
H      -46.26800000     -33.13900000     -72.70730000
C      -46.43300000     -30.93820000     -72.60830000
H      -45.89460000     -30.56880000     -73.47340000
H      -47.35520000     -30.33640000     -72.52730000
C      -43.63810000     -32.73490000     -73.23420000
H      -44.15410000     -31.84430000     -73.75080000
H      -42.58480000     -32.54880000     -73.52050000
C      -43.61310000     -32.53920000     -71.75280000
C      -42.58860000     -32.92930000     -70.97780000
C      -44.53280000     -31.71290000     -71.03550000
H      -41.85350000     -33.70170000     -71.19440000
C      -44.24950000     -31.66790000     -69.68140000
C      -45.69980000     -30.93830000     -71.29930000
C      -46.16230000     -30.30240000     -70.23670000
S      -42.82440000     -32.49760000     -69.28970000
S      -45.37070000     -30.86910000     -68.72030000
H      -47.05560000     -29.72390000     -70.14000000
