40
Properties=species:S:1:pos:R:3 #=T CELL(abcABC):=T 1.889726e+02=T 90.00000=T Traj:=T positionsangstrom=T Step:=T 0=T Bead:=T pbc="F F F"
C      -48.15110000     -35.74050000     -71.51710000
C      -47.31690000     -34.80350000     -70.88310000
C      -45.93550000     -35.08850000     -70.93790000
C      -45.45140000     -36.21840000     -71.62120000
C      -46.36010000     -37.06830000     -72.31370000
C      -47.68630000     -36.85170000     -72.15950000
H      -49.20320000     -35.52970000     -71.51050000
H      -45.26150000     -34.33360000     -70.41530000
H      -46.08180000     -37.91150000     -72.94390000
H      -48.36840000     -37.40830000     -72.73860000
C      -43.96000000     -36.54230000     -71.62850000
H      -43.81850000     -37.65560000     -71.74930000
H      -43.36950000     -36.11540000     -70.80640000
C      -47.90430000     -33.52830000     -70.34300000
H      -48.85920000     -33.77630000     -69.80400000
H      -47.21560000     -32.97510000     -69.66010000
S      -43.02420000     -35.75680000     -73.12830000
S      -48.52860000     -32.32990000     -71.64540000
C      -43.88630000     -34.23190000     -73.65230000
H      -43.81630000     -34.07530000     -74.76500000
H      -44.96010000     -34.40260000     -73.44690000
C      -47.31430000     -32.45400000     -72.92810000
H      -47.88590000     -32.34440000     -73.90610000
H      -46.86010000     -33.45360000     -72.86330000
C      -46.24600000     -31.26690000     -72.89220000
H      -45.48400000     -31.48400000     -73.68640000
H      -46.74390000     -30.32700000     -73.18990000
C      -43.19540000     -32.91900000     -73.05230000
H      -43.55950000     -32.15190000     -73.79130000
H      -42.17580000     -33.03620000     -73.31160000
C      -43.26370000     -32.49680000     -71.61190000
C      -42.35040000     -32.97040000     -70.73740000
C      -44.36110000     -31.74090000     -71.00750000
H      -41.54560000     -33.56890000     -71.04560000
C      -44.17470000     -31.56540000     -69.64500000
C      -45.64310000     -31.10880000     -71.45710000
C      -46.11720000     -30.35190000     -70.43640000
S      -42.79160000     -32.37430000     -69.02930000
S      -45.25530000     -30.49470000     -68.82750000
H      -46.98790000     -29.69240000     -70.50480000
