40
Properties=species:S:1:pos:R:3 #=T CELL(abcABC):=T 1.889726e+02=T 90.00000=T Traj:=T positionsangstrom=T Step:=T 0=T Bead:=T pbc="F F F"
C      -48.35820000     -35.74270000     -71.68830000
C      -47.63820000     -34.74180000     -71.00760000
C      -46.23080000     -34.84570000     -70.92070000
C      -45.60680000     -35.95060000     -71.47920000
C      -46.29750000     -36.93860000     -72.19300000
C      -47.72050000     -36.83140000     -72.34820000
H      -49.46240000     -35.52930000     -71.75710000
H      -45.63430000     -34.07220000     -70.38270000
H      -45.81990000     -37.75000000     -72.69070000
H      -48.35260000     -37.59110000     -72.72320000
C      -44.08640000     -36.04990000     -71.37770000
H      -43.80040000     -37.09970000     -71.02410000
H      -43.61000000     -35.28980000     -70.81710000
C      -48.26810000     -33.57510000     -70.36890000
H      -49.25700000     -33.78500000     -69.97160000
H      -47.65720000     -33.20990000     -69.55310000
S      -43.24840000     -35.93120000     -73.04610000
S      -48.54190000     -32.15300000     -71.54690000
C      -43.82780000     -34.26960000     -73.57270000
H      -43.77410000     -34.30200000     -74.66770000
H      -44.86100000     -34.37410000     -73.23620000
C      -47.21670000     -32.44580000     -72.92930000
H      -47.68600000     -32.30650000     -73.87840000
H      -46.78430000     -33.41760000     -72.89060000
C      -46.18510000     -31.34970000     -72.81700000
H      -45.44020000     -31.64310000     -73.57880000
H      -46.48930000     -30.31440000     -73.18900000
C      -43.02880000     -33.01730000     -73.14980000
H      -43.32700000     -32.19150000     -73.77080000
H      -41.97860000     -33.28370000     -73.28240000
C      -43.20080000     -32.66420000     -71.66930000
C      -42.25870000     -33.11620000     -70.74880000
C      -44.25420000     -31.85750000     -71.02550000
H      -41.38640000     -33.79640000     -71.01010000
C      -43.94040000     -31.63170000     -69.69560000
C      -45.51890000     -31.23380000     -71.43320000
C      -46.06560000     -30.36220000     -70.44880000
S      -42.56960000     -32.50260000     -69.11210000
S      -45.09550000     -30.51040000     -68.94250000
H      -46.87560000     -29.63830000     -70.58290000
