40
Properties=species:S:1:pos:R:3 #=T CELL(abcABC):=T 1.889726e+02=T 90.00000=T Traj:=T positionsangstrom=T Step:=T 0=T Bead:=T pbc="F F F"
C      -48.28550000     -35.64910000     -71.60580000
C      -47.63760000     -34.62920000     -70.95700000
C      -46.20660000     -34.80630000     -70.74330000
C      -45.56700000     -35.96640000     -71.22780000
C      -46.27630000     -36.97720000     -71.89450000
C      -47.69940000     -36.81150000     -71.94500000
H      -49.40040000     -35.64200000     -71.61440000
H      -45.64850000     -33.97290000     -70.28240000
H      -45.67330000     -37.80620000     -72.26140000
H      -48.36570000     -37.52850000     -72.30930000
C      -44.03230000     -36.07560000     -71.10750000
H      -43.86040000     -37.20990000     -70.88450000
H      -43.60520000     -35.55390000     -70.28720000
C      -48.12000000     -33.25680000     -70.56110000
H      -48.99440000     -33.29200000     -69.88260000
H      -47.30720000     -32.67820000     -70.15570000
S      -43.17740000     -35.81420000     -72.71060000
S      -48.73120000     -32.28430000     -72.09860000
C      -44.14140000     -34.43730000     -73.50860000
H      -44.36870000     -34.75640000     -74.55150000
H      -45.08570000     -34.44040000     -72.94040000
C      -47.08700000     -32.02050000     -73.03510000
H      -47.19940000     -31.83880000     -74.14860000
H      -46.48470000     -32.94510000     -72.95240000
C      -46.35480000     -30.81690000     -72.47820000
H      -45.65890000     -30.35980000     -73.22090000
H      -47.09310000     -30.07430000     -72.08060000
C      -43.56050000     -32.99040000     -73.43320000
H      -44.29490000     -32.32390000     -73.93360000
H      -42.77280000     -32.85560000     -74.16430000
C      -43.38830000     -32.63900000     -71.92850000
C      -42.30290000     -33.04360000     -71.22850000
C      -44.29160000     -31.83920000     -71.11970000
H      -41.52230000     -33.75070000     -71.59870000
C      -43.83070000     -31.80040000     -69.77900000
C      -45.52980000     -31.09070000     -71.25740000
C      -45.94630000     -30.56170000     -70.06740000
S      -42.39350000     -32.74820000     -69.49990000
S      -44.88680000     -30.78940000     -68.76740000
H      -46.73290000     -29.86570000     -69.95960000
