40
Properties=species:S:1:pos:R:3 #=T CELL(abcABC):=T 1.889726e+02=T 90.00000=T Traj:=T positionsangstrom=T Step:=T 0=T Bead:=T pbc="F F F"
C      -42.11910000     -32.93200000     -73.66070000
C      -42.29320000     -34.13990000     -72.99750000
C      -43.36740000     -34.92200000     -73.42240000
C      -44.25400000     -34.52740000     -74.42180000
C      -43.97830000     -33.38010000     -75.13440000
C      -42.91810000     -32.55980000     -74.76160000
H      -41.33890000     -32.31300000     -73.28270000
H      -43.51490000     -35.91450000     -72.95540000
H      -44.57040000     -33.15180000     -76.02790000
H      -42.67330000     -31.79940000     -75.50330000
C      -45.52930000     -35.36720000     -74.77870000
H      -45.02080000     -36.23130000     -75.39970000
H      -46.30870000     -34.88110000     -75.43380000
C      -41.37450000     -34.50400000     -71.83060000
H      -40.73390000     -35.37310000     -72.10030000
H      -40.69830000     -33.66730000     -71.56420000
S      -46.37720000     -36.05820000     -73.38870000
S      -42.25780000     -35.13880000     -70.31300000
C      -46.57810000     -34.41310000     -72.48600000
H      -45.56090000     -34.07300000     -72.07740000
H      -46.78280000     -33.79730000     -73.37160000
C      -43.30400000     -33.68550000     -70.03520000
H      -43.38010000     -33.09710000     -70.98700000
H      -42.66180000     -33.05580000     -69.37470000
C      -44.69810000     -34.02500000     -69.49480000
H      -45.25950000     -34.66720000     -70.21890000
H      -44.49380000     -34.61110000     -68.63570000
C      -47.64260000     -34.33520000     -71.37140000
H      -47.38510000     -35.05090000     -70.57880000
H      -48.65320000     -34.59590000     -71.84440000
C      -47.71610000     -32.95460000     -70.69150000
C      -48.85230000     -32.16260000     -70.93090000
C      -46.86280000     -32.41150000     -69.67630000
H      -49.68810000     -32.30370000     -71.67380000
C      -47.34640000     -31.22060000     -69.10890000
C      -45.52440000     -32.77470000     -69.21480000
C      -45.19270000     -31.95090000     -68.19250000
S      -48.81410000     -30.68160000     -69.95080000
S      -46.41060000     -30.82150000     -67.75830000
H      -44.32960000     -31.94880000     -67.57000000
