40
Properties=species:S:1:pos:R:3 #=T CELL(abcABC):=T 1.889726e+02=T 90.00000=T Traj:=T positionsangstrom=T Step:=T 0=T Bead:=T pbc="F F F"
C      -41.81000000     -32.96690000     -74.36130000
C      -42.34950000     -33.90110000     -73.41550000
C      -43.50700000     -34.60790000     -73.68230000
C      -44.25490000     -34.28950000     -74.85950000
C      -43.87740000     -33.20360000     -75.58730000
C      -42.58540000     -32.59890000     -75.44360000
H      -40.84150000     -32.46680000     -74.16140000
H      -43.69390000     -35.57480000     -73.16060000
H      -44.44310000     -32.92600000     -76.46720000
H      -42.20740000     -31.81580000     -76.15970000
C      -45.50470000     -35.02650000     -75.18360000
H      -45.21790000     -35.90900000     -75.67370000
H      -46.06450000     -34.57200000     -75.90580000
C      -41.59820000     -34.19040000     -72.06480000
H      -40.79760000     -34.87390000     -72.39790000
H      -41.22820000     -33.29790000     -71.66170000
S      -46.54370000     -35.37490000     -73.66500000
S      -42.54360000     -35.11500000     -70.78390000
C      -46.75140000     -33.81290000     -72.76200000
H      -45.65770000     -33.37580000     -72.71800000
H      -47.42220000     -33.09450000     -73.22540000
C      -43.81420000     -33.89940000     -70.31360000
H      -44.46700000     -33.65920000     -71.16170000
H      -43.34550000     -33.00780000     -69.95840000
C      -44.64850000     -34.31460000     -69.12210000
H      -45.09710000     -35.24040000     -69.53900000
H      -44.05900000     -34.55020000     -68.24060000
C      -47.19570000     -34.22150000     -71.39990000
H      -46.38770000     -34.84100000     -70.93040000
H      -48.08310000     -34.79470000     -71.47000000
C      -47.45180000     -33.01390000     -70.47690000
C      -48.50880000     -32.13270000     -70.69660000
C      -46.68590000     -32.67370000     -69.29190000
H      -49.18650000     -32.30260000     -71.50950000
C      -47.26790000     -31.62330000     -68.61510000
C      -45.57750000     -33.24940000     -68.56160000
C      -45.29490000     -32.60600000     -67.38880000
S      -48.72450000     -31.00540000     -69.40170000
S      -46.38400000     -31.22320000     -67.10270000
H      -44.49910000     -32.85060000     -66.70170000
