40
Properties=species:S:1:pos:R:3 #=T CELL(abcABC):=T 1.889726e+02=T 90.00000=T Traj:=T positionsangstrom=T Step:=T 0=T Bead:=T pbc="F F F"
C      -41.94330000     -32.60230000     -74.22980000
C      -42.32810000     -33.75960000     -73.57540000
C      -43.45960000     -34.49410000     -73.95440000
C      -44.17970000     -34.15040000     -75.10650000
C      -43.67080000     -33.07440000     -75.91220000
C      -42.61140000     -32.32000000     -75.48380000
H      -41.02700000     -32.07720000     -73.88450000
H      -43.96650000     -35.20770000     -73.30300000
H      -44.23740000     -32.74640000     -76.78550000
H      -42.20900000     -31.60330000     -76.18210000
C      -45.58940000     -34.70710000     -75.26080000
H      -45.55180000     -35.60400000     -75.98440000
H      -46.35890000     -33.91610000     -75.50470000
C      -41.59450000     -34.23670000     -72.29870000
H      -40.74010000     -34.88140000     -72.52780000
H      -41.13860000     -33.41150000     -71.66740000
S      -46.45150000     -35.36570000     -73.71500000
S      -42.67490000     -35.15540000     -71.03520000
C      -46.65650000     -33.88980000     -72.67200000
H      -45.75740000     -33.42950000     -72.55270000
H      -47.36400000     -33.15670000     -73.06460000
C      -43.56160000     -33.77810000     -70.05810000
H      -44.22430000     -33.15990000     -70.71180000
H      -42.80760000     -33.09090000     -69.59680000
C      -44.51380000     -34.37060000     -69.07820000
H      -45.11050000     -35.24060000     -69.35380000
H      -43.97720000     -34.74990000     -68.23400000
C      -47.21510000     -34.37000000     -71.27760000
H      -46.61680000     -35.19380000     -70.82080000
H      -48.18080000     -34.81070000     -71.54260000
C      -47.45740000     -33.15550000     -70.37290000
C      -48.58550000     -32.34070000     -70.50050000
C      -46.74580000     -32.81710000     -69.17810000
H      -49.28130000     -32.34110000     -71.36570000
C      -47.26560000     -31.72180000     -68.49220000
C      -45.50270000     -33.26450000     -68.54780000
C      -45.30090000     -32.60010000     -67.35820000
S      -48.67150000     -31.04110000     -69.31470000
S      -46.57470000     -31.46770000     -66.88160000
H      -44.50600000     -32.72230000     -66.61240000
