40
Properties=species:S:1:pos:R:3 #=T CELL(abcABC):=T 1.889726e+02=T 90.00000=T Traj:=T positionsangstrom=T Step:=T 0=T Bead:=T pbc="F F F"
C      -42.02800000     -32.35350000     -73.88130000
C      -42.34420000     -33.64870000     -73.36800000
C      -43.48720000     -34.33780000     -73.81560000
C      -44.35750000     -33.73420000     -74.74960000
C      -44.11480000     -32.42860000     -75.13560000
C      -42.91050000     -31.76990000     -74.79990000
H      -41.20740000     -31.80980000     -73.41020000
H      -43.52640000     -35.38190000     -73.58290000
H      -44.72980000     -31.82860000     -75.82760000
H      -42.60050000     -30.84730000     -75.26110000
C      -45.46580000     -34.52820000     -75.27800000
H      -45.16820000     -35.43200000     -75.92000000
H      -45.99250000     -33.87440000     -76.00910000
C      -41.40350000     -34.32220000     -72.36850000
H      -40.73390000     -35.13990000     -72.80520000
H      -40.76020000     -33.51750000     -71.95170000
S      -46.82680000     -35.03230000     -74.17240000
S      -42.21290000     -35.18840000     -70.93570000
C      -46.94240000     -33.55910000     -72.98120000
H      -45.98580000     -33.12570000     -72.99470000
H      -47.69930000     -32.84210000     -73.37810000
C      -43.48470000     -33.89960000     -70.46690000
H      -43.96170000     -33.54170000     -71.36140000
H      -42.82250000     -33.13170000     -70.08430000
C      -44.48460000     -34.54100000     -69.44970000
H      -45.00920000     -35.28310000     -69.89960000
H      -43.89630000     -35.00950000     -68.66770000
C      -47.29540000     -34.27640000     -71.59120000
H      -46.50560000     -34.90400000     -71.39770000
H      -48.14600000     -34.90950000     -71.76580000
C      -47.61100000     -33.32790000     -70.39770000
C      -48.74890000     -32.54010000     -70.38270000
C      -46.70690000     -33.05130000     -69.24390000
H      -49.60240000     -32.55630000     -71.10850000
C      -47.21710000     -32.06610000     -68.39070000
C      -45.38690000     -33.50550000     -68.78580000
C      -44.97140000     -32.74240000     -67.71980000
S      -48.90450000     -31.62070000     -68.86440000
S      -46.16100000     -31.61800000     -67.08670000
H      -43.93550000     -32.70690000     -67.25000000
