40
Properties=species:S:1:pos:R:3 #=T CELL(abcABC):=T 1.889726e+02=T 90.00000=T Traj:=T positionsangstrom=T Step:=T 0=T Bead:=T pbc="F F F"
C      -42.41010000     -32.16800000     -73.28350000
C      -42.55250000     -33.55780000     -73.38800000
C      -43.58760000     -34.07640000     -74.18160000
C      -44.47500000     -33.23890000     -74.78760000
C      -44.32550000     -31.84770000     -74.76300000
C      -43.27360000     -31.33830000     -73.96220000
H      -41.63790000     -31.68890000     -72.62640000
H      -43.76530000     -35.12240000     -74.20630000
H      -45.13360000     -31.16260000     -75.04780000
H      -43.11930000     -30.29170000     -73.83730000
C      -45.68440000     -33.92550000     -75.40790000
H      -45.45080000     -34.52110000     -76.31930000
H      -46.49340000     -33.23640000     -75.67620000
C      -41.66040000     -34.55040000     -72.77490000
H      -41.39650000     -35.31670000     -73.48650000
H      -40.71190000     -34.15060000     -72.34560000
S      -46.52470000     -35.13360000     -74.17720000
S      -42.57230000     -35.38500000     -71.40680000
C      -46.90670000     -33.96380000     -72.81190000
H      -46.16240000     -33.23140000     -72.82940000
H      -47.92000000     -33.46730000     -73.05840000
C      -43.47130000     -33.93050000     -70.60560000
H      -43.93880000     -33.43230000     -71.46740000
H      -42.75620000     -33.21020000     -70.16450000
C      -44.25550000     -34.51500000     -69.40230000
H      -44.91630000     -35.34370000     -69.70830000
H      -43.53150000     -34.89560000     -68.77640000
C      -47.14940000     -34.55890000     -71.45610000
H      -46.19940000     -35.06060000     -71.15520000
H      -47.92280000     -35.21280000     -71.56590000
C      -47.40500000     -33.51410000     -70.33600000
C      -48.59310000     -32.81700000     -70.29890000
C      -46.54680000     -33.14470000     -69.23400000
H      -49.39740000     -32.90560000     -71.00340000
C      -47.17710000     -32.25770000     -68.34000000
C      -45.18140000     -33.46940000     -68.78010000
C      -44.88360000     -32.83230000     -67.59770000
S      -48.68260000     -31.68980000     -68.94590000
S      -46.04120000     -31.62130000     -67.12490000
H      -43.98680000     -32.84630000     -67.07630000
