40
Properties=species:S:1:pos:R:3 #=T CELL(abcABC):=T 1.889726e+02=T 90.00000=T Traj:=T positionsangstrom=T Step:=T 0=T Bead:=T pbc="F F F"
C      -42.43850000     -32.12760000     -73.65740000
C      -42.67900000     -33.51640000     -73.68520000
C      -43.85960000     -34.00770000     -74.23530000
C      -44.85250000     -33.17870000     -74.76860000
C      -44.61710000     -31.77990000     -74.72080000
C      -43.45170000     -31.30130000     -74.18200000
H      -41.60430000     -31.68390000     -73.05950000
H      -44.03830000     -35.05540000     -74.29510000
H      -45.18730000     -31.04880000     -75.14640000
H      -43.41710000     -30.18900000     -74.02990000
C      -46.10520000     -33.73050000     -75.32590000
H      -46.00760000     -34.33540000     -76.20470000
H      -46.77390000     -32.98900000     -75.74710000
C      -41.66850000     -34.50050000     -73.12040000
H      -41.42130000     -35.20260000     -73.88310000
H      -40.71910000     -33.99850000     -72.78880000
S      -47.11790000     -34.79250000     -74.24270000
S      -42.22620000     -35.38510000     -71.68730000
C      -47.45420000     -33.69000000     -72.69640000
H      -46.75760000     -32.88150000     -72.79160000
H      -48.53810000     -33.34170000     -72.81400000
C      -42.89910000     -34.06910000     -70.55360000
H      -43.20430000     -33.33170000     -71.28490000
H      -42.08210000     -33.71570000     -69.93050000
C      -44.07540000     -34.57830000     -69.62680000
H      -44.71360000     -35.27290000     -70.14780000
H      -43.66010000     -35.16880000     -68.79250000
C      -47.24790000     -34.44130000     -71.40800000
H      -46.18670000     -34.80550000     -71.53660000
H      -47.98040000     -35.26840000     -71.27470000
C      -47.38470000     -33.49160000     -70.20640000
C      -48.54410000     -32.79830000     -69.94910000
C      -46.33720000     -33.22100000     -69.18050000
H      -49.41360000     -32.91300000     -70.62600000
C      -46.81760000     -32.26040000     -68.29670000
C      -45.00560000     -33.58250000     -68.90870000
C      -44.52610000     -32.91740000     -67.76280000
S      -48.57740000     -31.98480000     -68.38950000
S      -45.71830000     -31.89150000     -66.96250000
H      -43.42950000     -32.88650000     -67.45250000
