40
Properties=species:S:1:pos:R:3 #=T CELL(abcABC):=T 1.889726e+02=T 90.00000=T Traj:=T positionsangstrom=T Step:=T 0=T Bead:=T pbc="F F F"
C      -44.89680000     -31.68750000     -75.43020000
C      -44.16930000     -31.77510000     -74.19560000
C      -43.74730000     -33.02510000     -73.71380000
C      -44.20630000     -34.15020000     -74.37500000
C      -45.02740000     -34.04090000     -75.50630000
C      -45.30190000     -32.83170000     -76.08840000
H      -44.99720000     -30.70300000     -75.92500000
H      -43.13460000     -33.09030000     -72.78530000
H      -45.23000000     -34.99520000     -76.00670000
H      -45.98110000     -32.72440000     -77.00220000
C      -43.89990000     -35.49490000     -73.81470000
H      -42.84620000     -35.73310000     -73.76880000
H      -44.40000000     -36.20080000     -74.46720000
C      -43.68610000     -30.59420000     -73.36360000
H      -42.64940000     -30.83990000     -72.83380000
H      -43.71630000     -29.59100000     -73.81970000
S      -44.68590000     -35.79920000     -72.18470000
S      -44.99300000     -30.47710000     -71.86930000
C      -46.56740000     -35.44880000     -72.36440000
H      -46.76290000     -34.55260000     -72.89140000
H      -46.84090000     -36.29420000     -73.02300000
C      -46.31810000     -31.66380000     -72.03720000
H      -45.85850000     -32.53840000     -72.26060000
H      -46.97920000     -31.40150000     -72.91890000
C      -47.29550000     -31.87140000     -70.88050000
H      -47.84890000     -30.96520000     -70.65650000
H      -48.07180000     -32.57670000     -71.33380000
C      -47.20790000     -35.41590000     -70.99270000
H      -47.59220000     -36.40990000     -70.80780000
H      -47.99950000     -34.64610000     -70.98210000
C      -46.25180000     -35.12290000     -69.87170000
C      -45.83720000     -36.06430000     -68.92560000
C      -46.13190000     -33.75270000     -69.37980000
H      -45.73070000     -37.15790000     -69.12330000
C      -45.40620000     -33.70830000     -68.11730000
C      -46.62390000     -32.41240000     -69.67170000
C      -46.21880000     -31.48310000     -68.70900000
S      -44.83480000     -35.26410000     -67.62690000
S      -45.25570000     -32.11040000     -67.43220000
H      -46.40560000     -30.39320000     -68.79590000
