40
Properties=species:S:1:pos:R:3 #=T CELL(abcABC):=T 1.889726e+02=T 90.00000=T Traj:=T positionsangstrom=T Step:=T 0=T Bead:=T pbc="F F F"
C      -45.29290000     -37.36870000     -69.86560000
C      -46.26180000     -36.73750000     -70.69640000
C      -45.89620000     -36.36160000     -72.02800000
C      -44.59770000     -36.55210000     -72.47570000
C      -43.67030000     -37.23670000     -71.65060000
C      -44.03790000     -37.63450000     -70.41350000
H      -45.56030000     -37.77860000     -68.90200000
H      -46.79190000     -36.14240000     -72.60400000
H      -42.67300000     -37.41580000     -72.14180000
H      -43.31700000     -38.22660000     -69.78420000
C      -44.22920000     -36.22790000     -73.83950000
H      -45.21110000     -35.97110000     -74.31150000
H      -43.71970000     -37.09690000     -74.31680000
C      -47.67280000     -36.58690000     -70.23840000
H      -48.41400000     -36.59450000     -71.05000000
H      -47.99870000     -37.38580000     -69.53490000
S      -42.98080000     -34.86950000     -73.86530000
S      -47.78740000     -35.10770000     -69.07690000
C      -43.62980000     -33.70390000     -72.60760000
H      -43.62630000     -34.17280000     -71.70180000
H      -42.80460000     -32.94310000     -72.54360000
C      -47.32710000     -33.63010000     -70.01160000
H      -48.08720000     -32.90240000     -69.70890000
H      -47.28100000     -33.91640000     -71.05190000
C      -45.83200000     -33.16550000     -69.54790000
H      -45.66160000     -33.33110000     -68.49180000
H      -45.09930000     -33.84730000     -70.05710000
C      -44.92060000     -32.99970000     -72.97660000
H      -45.82630000     -33.57060000     -72.66550000
H      -44.88210000     -32.99130000     -74.11280000
C      -44.94960000     -31.56210000     -72.45700000
C      -44.70140000     -30.54080000     -73.33940000
C      -45.32560000     -31.11240000     -71.20590000
H      -44.42420000     -30.64870000     -74.40410000
C      -45.28640000     -29.71710000     -71.13010000
C      -45.64960000     -31.70380000     -69.89740000
C      -45.77720000     -30.73700000     -68.94470000
S      -44.99630000     -28.90910000     -72.69130000
S      -45.58170000     -29.09750000     -69.52270000
H      -46.01750000     -30.83980000     -67.92450000
