40
Properties=species:S:1:pos:R:3 #=T CELL(abcABC):=T 1.889726e+02=T 90.00000=T Traj:=T positionsangstrom=T Step:=T 0=T Bead:=T pbc="F F F"
C      -47.56260000     -35.57570000     -73.24000000
C      -47.41110000     -34.58070000     -72.22740000
C      -46.66350000     -34.93850000     -71.10660000
C      -45.75570000     -35.98090000     -71.14090000
C      -45.87390000     -36.94670000     -72.14170000
C      -46.79170000     -36.72650000     -73.24060000
H      -48.14950000     -35.33800000     -74.04460000
H      -46.52330000     -34.21540000     -70.30260000
H      -45.18660000     -37.81080000     -72.19640000
H      -46.97760000     -37.45670000     -74.00390000
C      -44.65280000     -36.15700000     -70.16110000
H      -44.70590000     -37.17910000     -69.73070000
H      -44.80310000     -35.45330000     -69.30530000
C      -47.80390000     -33.17490000     -72.35300000
H      -48.89030000     -33.07860000     -72.32690000
H      -47.42170000     -32.59580000     -71.47500000
S      -42.95910000     -35.92630000     -70.78810000
S      -47.37280000     -32.52670000     -73.94840000
C      -43.05320000     -34.78560000     -72.21860000
H      -42.39570000     -35.08290000     -73.07050000
H      -44.08770000     -34.88870000     -72.60360000
C      -45.45520000     -32.44420000     -73.86490000
H      -44.98970000     -32.47070000     -74.85090000
H      -45.11990000     -33.39940000     -73.35430000
C      -44.98540000     -31.20490000     -73.23300000
H      -43.88420000     -31.20270000     -73.33000000
H      -45.40100000     -30.28670000     -73.66560000
C      -42.74450000     -33.34050000     -71.78100000
H      -42.89410000     -32.72900000     -72.70860000
H      -41.68240000     -33.29170000     -71.58570000
C      -43.53680000     -32.84640000     -70.64690000
C      -43.17520000     -33.12960000     -69.30150000
C      -44.71790000     -31.97480000     -70.73950000
H      -42.26570000     -33.69360000     -68.93600000
C      -45.14690000     -31.61940000     -69.44770000
C      -45.29020000     -31.06130000     -71.75180000
C      -46.26880000     -30.23420000     -71.22080000
S      -44.30200000     -32.32150000     -68.11470000
S      -46.19030000     -30.28050000     -69.43020000
H      -46.80210000     -29.59970000     -71.92670000
