40
Properties=species:S:1:pos:R:3 #=T CELL(abcABC):=T 1.889726e+02=T 90.00000=T Traj:=T positionsangstrom=T Step:=T 0=T Bead:=T pbc="F F F"
C      -45.44110000     -34.04770000     -67.40010000
C      -44.50330000     -34.45120000     -68.30810000
C      -43.52990000     -33.59430000     -68.73720000
C      -43.47460000     -32.27040000     -68.36080000
C      -44.38720000     -31.89540000     -67.32460000
C      -45.41640000     -32.76780000     -66.91530000
H      -46.21080000     -34.79670000     -67.16610000
H      -42.86700000     -34.06180000     -69.52040000
H      -44.42660000     -30.89200000     -66.91420000
H      -46.14030000     -32.51980000     -66.15140000
C      -42.45100000     -31.26770000     -68.71470000
H      -41.60170000     -31.66130000     -68.16160000
H      -42.62560000     -30.24780000     -68.44550000
C      -44.49000000     -35.83580000     -68.95360000
H      -43.90160000     -35.90930000     -69.86660000
H      -43.99470000     -36.55380000     -68.16180000
S      -42.01700000     -31.53990000     -70.49510000
S      -46.24790000     -36.50430000     -69.27070000
C      -43.64280000     -31.30190000     -71.43110000
H      -44.24350000     -30.76610000     -70.68580000
H      -43.44300000     -30.59070000     -72.24240000
C      -46.83580000     -35.62280000     -70.78640000
H      -47.09190000     -34.50600000     -70.67310000
H      -47.78100000     -36.10230000     -70.99350000
C      -45.84000000     -35.60800000     -71.96780000
H      -44.88130000     -35.21370000     -71.63220000
H      -45.74550000     -36.70380000     -72.24870000
C      -44.31140000     -32.59400000     -71.86350000
H      -44.89730000     -32.99280000     -71.01070000
H      -43.62780000     -33.42220000     -72.12390000
C      -45.27670000     -32.33740000     -72.95140000
C      -45.39420000     -31.09980000     -73.63600000
C      -46.15760000     -33.36430000     -73.47910000
H      -44.88510000     -30.17430000     -73.52180000
C      -46.99990000     -32.92030000     -74.48100000
C      -46.46600000     -34.77670000     -73.19510000
C      -47.39650000     -35.26810000     -74.12800000
S      -46.62950000     -31.23650000     -74.79120000
S      -47.94390000     -34.10930000     -75.28890000
H      -47.83010000     -36.27180000     -74.00360000
