40
Properties=species:S:1:pos:R:3 #=T CELL(abcABC):=T 1.889726e+02=T 90.00000=T Traj:=T positionsangstrom=T Step:=T 0=T Bead:=T pbc="F F F"
C      -47.64770000     -35.67160000     -73.34450000
C      -47.30660000     -34.61180000     -72.49390000
C      -46.27290000     -34.77450000     -71.54430000
C      -45.76380000     -36.03530000     -71.22810000
C      -46.22840000     -37.10850000     -72.05090000
C      -47.14910000     -36.95470000     -73.06000000
H      -48.39480000     -35.52620000     -74.16780000
H      -45.76540000     -33.95000000     -71.04810000
H      -45.96660000     -38.12650000     -71.84990000
H      -47.32560000     -37.84300000     -73.72200000
C      -44.74120000     -36.05430000     -70.10960000
H      -44.87640000     -36.96370000     -69.48900000
H      -44.76090000     -35.15840000     -69.47900000
C      -47.95070000     -33.24470000     -72.65510000
H      -49.08270000     -33.28680000     -72.86310000
H      -47.77630000     -32.60050000     -71.78380000
S      -42.94360000     -36.11090000     -70.76770000
S      -47.30370000     -32.16690000     -74.10540000
C      -43.01070000     -34.79420000     -72.02420000
H      -42.30740000     -35.17440000     -72.73680000
H      -43.97170000     -34.76360000     -72.60130000
C      -45.49380000     -32.30000000     -73.93050000
H      -45.14310000     -32.27240000     -75.04710000
H      -45.26520000     -33.28520000     -73.53770000
C      -44.80820000     -31.12190000     -73.16550000
H      -43.76080000     -31.08700000     -73.25670000
H      -45.12960000     -30.14790000     -73.47240000
C      -42.59760000     -33.34460000     -71.61180000
H      -42.59920000     -32.78740000     -72.50570000
H      -41.61140000     -33.42770000     -71.14550000
C      -43.38310000     -32.71200000     -70.47350000
C      -43.16000000     -33.05460000     -69.12910000
C      -44.51280000     -31.82820000     -70.55550000
H      -42.49190000     -33.85720000     -68.94580000
C      -45.03960000     -31.54580000     -69.33250000
C      -45.25910000     -31.23760000     -71.70080000
C      -46.23170000     -30.39390000     -71.26880000
S      -44.25270000     -32.33190000     -67.98740000
S      -46.42110000     -30.41050000     -69.46680000
H      -46.82570000     -29.82970000     -71.95240000
