40
Properties=species:S:1:pos:R:3 #=T CELL(abcABC):=T 1.889726e+02=T 90.00000=T Traj:=T positionsangstrom=T Step:=T 0=T Bead:=T pbc="F F F"
C      -47.85070000     -35.61390000     -73.18680000
C      -47.29970000     -34.48340000     -72.48420000
C      -46.21960000     -34.70400000     -71.64710000
C      -45.70410000     -35.97990000     -71.43140000
C      -46.21760000     -37.06850000     -72.13620000
C      -47.33040000     -36.86860000     -72.99820000
H      -48.62260000     -35.44100000     -73.85460000
H      -45.72810000     -33.92530000     -71.06780000
H      -45.78840000     -38.03170000     -71.97630000
H      -47.61590000     -37.66610000     -73.65510000
C      -44.52070000     -36.18340000     -70.57210000
H      -44.55770000     -37.21400000     -70.12830000
H      -44.53550000     -35.52640000     -69.72210000
C      -47.87940000     -33.10440000     -72.64910000
H      -48.95270000     -33.24700000     -72.84520000
H      -47.77810000     -32.61560000     -71.75540000
S      -42.76960000     -36.02060000     -71.22210000
S      -47.18980000     -32.27020000     -74.14810000
C      -42.76110000     -34.28620000     -71.93140000
H      -42.15800000     -34.39460000     -72.78780000
H      -43.81800000     -34.12380000     -72.16670000
C      -45.39710000     -32.54250000     -73.99650000
H      -45.01720000     -32.38060000     -75.02010000
H      -45.19740000     -33.60860000     -73.76220000
C      -44.56220000     -31.58920000     -73.03340000
H      -43.50090000     -31.90490000     -72.94550000
H      -44.60390000     -30.55380000     -73.41070000
C      -42.28920000     -33.12970000     -70.99860000
H      -41.91800000     -32.31500000     -71.65440000
H      -41.29980000     -33.41810000     -70.42620000
C      -43.30200000     -32.68200000     -70.01320000
C      -43.28930000     -32.88640000     -68.64950000
C      -44.51290000     -31.93390000     -70.38390000
H      -42.47510000     -33.32540000     -68.05360000
C      -45.31900000     -31.61710000     -69.32300000
C      -45.15980000     -31.39160000     -71.60580000
C      -46.14810000     -30.54660000     -71.36280000
S      -44.68890000     -32.20880000     -67.79290000
S      -46.65500000     -30.59370000     -69.71310000
H      -46.79640000     -30.17880000     -72.10610000
