40
Properties=species:S:1:pos:R:3 #=T CELL(abcABC):=T 1.889726e+02=T 90.00000=T Traj:=T positionsangstrom=T Step:=T 0=T Bead:=T pbc="F F F"
C      -47.32700000     -35.64620000     -73.49540000
C      -47.18810000     -34.58700000     -72.61910000
C      -46.46270000     -34.72830000     -71.45140000
C      -45.67910000     -35.89200000     -71.20800000
C      -45.81380000     -36.96900000     -72.14220000
C      -46.63250000     -36.81740000     -73.25920000
H      -47.77760000     -35.54360000     -74.45930000
H      -46.40530000     -33.82730000     -70.80050000
H      -45.15790000     -37.82700000     -72.07220000
H      -46.83370000     -37.64800000     -74.07100000
C      -44.71280000     -36.07370000     -70.05390000
H      -44.78710000     -37.12150000     -69.75410000
H      -44.98300000     -35.36450000     -69.29270000
C      -47.74780000     -33.21140000     -72.90790000
H      -48.86500000     -33.15070000     -73.18580000
H      -47.60890000     -32.49710000     -72.08280000
S      -42.87050000     -35.91150000     -70.51090000
S      -47.00240000     -32.51930000     -74.41990000
C      -42.83770000     -34.61310000     -71.83450000
H      -42.16670000     -34.98640000     -72.57770000
H      -43.82040000     -34.71300000     -72.44050000
C      -45.19170000     -32.45540000     -73.91280000
H      -44.65010000     -32.54920000     -74.79980000
H      -44.91040000     -33.41980000     -73.40740000
C      -44.79830000     -31.21860000     -73.10670000
H      -43.66800000     -31.19250000     -73.14850000
H      -45.25860000     -30.33800000     -73.47020000
C      -42.53140000     -33.22420000     -71.23680000
H      -42.31140000     -32.52600000     -72.00360000
H      -41.59030000     -33.28550000     -70.61610000
C      -43.53580000     -32.69360000     -70.27550000
C      -43.44630000     -33.06510000     -68.93700000
C      -44.65020000     -31.80510000     -70.50910000
H      -42.77550000     -33.96920000     -68.63440000
C      -45.34760000     -31.54900000     -69.35200000
C      -45.25690000     -31.08530000     -71.69910000
C      -46.28980000     -30.28360000     -71.31690000
S      -44.87340000     -32.50400000     -67.96080000
S      -46.67160000     -30.42700000     -69.59790000
H      -46.88030000     -29.62570000     -71.92880000
