40
Properties=species:S:1:pos:R:3 #=T CELL(abcABC):=T 1.889726e+02=T 90.00000=T Traj:=T positionsangstrom=T Step:=T 0=T Bead:=T pbc="F F F"
C      -47.29490000     -34.25350000     -70.00600000
C      -47.47700000     -33.83200000     -71.32540000
C      -46.80440000     -34.40480000     -72.44910000
C      -45.81100000     -35.37340000     -72.12710000
C      -45.57470000     -35.74390000     -70.79450000
C      -46.34220000     -35.24270000     -69.69820000
H      -47.76580000     -33.80800000     -69.16030000
H      -47.00660000     -34.11000000     -73.44210000
H      -44.71870000     -36.41200000     -70.56520000
H      -46.09640000     -35.48920000     -68.65300000
C      -45.01630000     -36.20750000     -73.13790000
H      -45.58850000     -37.09520000     -73.47780000
H      -44.05160000     -36.50850000     -72.67910000
C      -48.59020000     -32.83210000     -71.74930000
H      -48.48190000     -32.49120000     -72.81370000
H      -49.57330000     -33.36590000     -71.71160000
S      -44.58470000     -35.40660000     -74.70270000
S      -48.60450000     -31.32730000     -70.63750000
C      -43.18270000     -34.19400000     -74.28640000
H      -42.34450000     -34.74830000     -73.80230000
H      -42.89500000     -33.96280000     -75.33650000
C      -47.32430000     -30.27140000     -71.58890000
H      -47.10510000     -29.36000000     -71.02620000
H      -47.81090000     -29.95280000     -72.49710000
C      -46.02250000     -30.98590000     -71.89440000
H      -46.23230000     -31.71770000     -72.69470000
H      -45.32610000     -30.27750000     -72.40850000
C      -43.61360000     -32.91270000     -73.46470000
H      -44.64840000     -32.61510000     -73.57780000
H      -42.86710000     -32.18890000     -73.73330000
C      -43.48420000     -33.19610000     -71.99360000
C      -42.58340000     -34.07710000     -71.54650000
C      -44.13700000     -32.50840000     -70.90930000
H      -41.77900000     -34.68030000     -71.99630000
C      -43.73240000     -32.96540000     -69.66250000
C      -45.25200000     -31.59240000     -70.75300000
C      -45.61510000     -31.42260000     -69.44320000
S      -42.46510000     -34.13780000     -69.78930000
S      -44.54560000     -32.27320000     -68.29700000
H      -46.21310000     -30.57950000     -69.00110000
