40
Properties=species:S:1:pos:R:3 #=T CELL(abcABC):=T 1.889726e+02=T 90.00000=T Traj:=T positionsangstrom=T Step:=T 0=T Bead:=T pbc="F F F"
C      -46.77120000     -31.67640000     -69.50310000
C      -46.59670000     -30.85940000     -70.61620000
C      -47.39810000     -31.08120000     -71.76890000
C      -48.38910000     -32.06300000     -71.81340000
C      -48.55470000     -32.86950000     -70.60850000
C      -47.84270000     -32.55830000     -69.45230000
H      -46.20630000     -31.51900000     -68.56090000
H      -47.30690000     -30.39670000     -72.59130000
H      -49.40090000     -33.55240000     -70.52850000
H      -47.88390000     -33.11110000     -68.57380000
C      -49.06490000     -32.42400000     -73.03540000
H      -49.29470000     -31.58680000     -73.69330000
H      -49.95070000     -32.98560000     -72.83030000
C      -45.57410000     -29.75120000     -70.55980000
H      -45.52990000     -29.30160000     -71.56920000
H      -45.87710000     -29.06470000     -69.79250000
S      -47.93650000     -33.52570000     -74.21040000
S      -43.81560000     -30.11730000     -70.14240000
C      -47.14240000     -34.71270000     -72.92060000
H      -47.01780000     -34.27250000     -71.88790000
H      -47.74940000     -35.58680000     -72.90290000
C      -43.18330000     -30.97680000     -71.60730000
H      -42.14280000     -31.20930000     -71.40740000
H      -43.35530000     -30.29480000     -72.46800000
C      -43.81240000     -32.28150000     -72.00340000
H      -44.86310000     -32.05250000     -72.20250000
H      -43.40260000     -32.50400000     -73.00120000
C      -45.66370000     -34.86710000     -73.42660000
H      -45.15530000     -33.86400000     -73.58910000
H      -45.62150000     -35.39400000     -74.36430000
C      -44.73400000     -35.51750000     -72.38790000
C      -44.58230000     -36.89380000     -72.28270000
C      -44.09360000     -34.81970000     -71.30300000
H      -45.01390000     -37.61150000     -72.87700000
C      -43.43560000     -35.66660000     -70.44960000
C      -43.66530000     -33.45890000     -71.07020000
C      -42.87320000     -33.31110000     -69.96830000
S      -43.58120000     -37.35170000     -70.85830000
S      -42.55880000     -34.88160000     -69.17650000
H      -42.37940000     -32.36420000     -69.62430000
