40
Properties=species:S:1:pos:R:3 #=T CELL(abcABC):=T 1.889726e+02=T 90.00000=T Traj:=T positionsangstrom=T Step:=T 0=T Bead:=T pbc="F F F"
C      -45.35110000     -34.11800000     -67.27430000
C      -44.45520000     -34.57720000     -68.27300000
C      -43.51090000     -33.66010000     -68.77240000
C      -43.48050000     -32.34140000     -68.31910000
C      -44.36640000     -31.97290000     -67.31180000
C      -45.29320000     -32.86580000     -66.71090000
H      -46.14780000     -34.80870000     -66.97150000
H      -42.85170000     -34.10450000     -69.46970000
H      -44.25110000     -30.94310000     -66.93360000
H      -45.98730000     -32.58190000     -65.87970000
C      -42.40720000     -31.34320000     -68.76320000
H      -41.49540000     -31.39310000     -68.05340000
H      -42.82760000     -30.31430000     -68.60290000
C      -44.62080000     -35.89500000     -68.94660000
H      -44.09890000     -35.89110000     -69.86070000
H      -44.18820000     -36.66190000     -68.26470000
S      -41.91020000     -31.48760000     -70.50250000
S      -46.30460000     -36.50610000     -69.38880000
C      -43.39800000     -31.28010000     -71.60060000
H      -43.98610000     -30.36300000     -71.31850000
H      -42.96300000     -31.18870000     -72.53000000
C      -46.79470000     -35.40070000     -70.81290000
H      -46.81740000     -34.37860000     -70.48670000
H      -47.86270000     -35.60490000     -71.17080000
C      -45.89060000     -35.57410000     -72.02250000
H      -44.86820000     -35.30480000     -71.77740000
H      -45.73040000     -36.59740000     -72.41180000
C      -44.37030000     -32.44340000     -71.81510000
H      -44.90330000     -32.81390000     -70.94970000
H      -43.77640000     -33.30450000     -72.15320000
C      -45.32860000     -32.31010000     -72.91000000
C      -45.52270000     -31.11420000     -73.54760000
C      -46.21080000     -33.31490000     -73.37730000
H      -44.90430000     -30.27970000     -73.39280000
C      -47.01830000     -32.91260000     -74.44980000
C      -46.41570000     -34.78650000     -73.19570000
C      -47.37500000     -35.33230000     -74.04940000
S      -46.67970000     -31.25690000     -74.87110000
S      -48.04390000     -34.07310000     -75.24170000
H      -47.78450000     -36.35270000     -73.99630000
