40
Properties=species:S:1:pos:R:3 #=T CELL(abcABC):=T 1.889726e+02=T 90.00000=T Traj:=T positionsangstrom=T Step:=T 0=T Bead:=T pbc="F F F"
C      -47.24670000     -35.62140000     -73.52990000
C      -47.09680000     -34.56870000     -72.62820000
C      -46.26910000     -34.72590000     -71.49140000
C      -45.63620000     -35.96830000     -71.22240000
C      -45.77880000     -36.98830000     -72.21480000
C      -46.56030000     -36.81580000     -73.32380000
H      -47.87260000     -35.56210000     -74.32220000
H      -46.29630000     -33.90100000     -70.75960000
H      -45.24870000     -37.93670000     -72.03260000
H      -46.72960000     -37.63180000     -74.06190000
C      -44.87280000     -36.16250000     -69.97920000
H      -45.08890000     -37.17000000     -69.47880000
H      -45.17730000     -35.43360000     -69.20980000
C      -47.79190000     -33.25020000     -72.89880000
H      -48.78080000     -33.37660000     -73.26820000
H      -47.70830000     -32.54770000     -72.11160000
S      -43.02420000     -35.85640000     -70.18560000
S      -46.90350000     -32.42930000     -74.38190000
C      -42.84380000     -34.73760000     -71.61240000
H      -42.03470000     -35.19850000     -72.15090000
H      -43.73620000     -34.68510000     -72.21720000
C      -45.12070000     -32.41620000     -73.89110000
H      -44.56220000     -32.34300000     -74.83290000
H      -44.86960000     -33.29960000     -73.25940000
C      -44.72130000     -31.14040000     -73.15340000
H      -43.60000000     -31.02030000     -73.27270000
H      -45.08370000     -30.29790000     -73.82450000
C      -42.53570000     -33.22920000     -71.32160000
H      -42.56180000     -32.69800000     -72.22860000
H      -41.49590000     -33.16540000     -70.88230000
C      -43.59500000     -32.70280000     -70.35180000
C      -43.53630000     -33.06570000     -69.00850000
C      -44.71400000     -31.86670000     -70.59950000
H      -42.80610000     -33.70490000     -68.43260000
C      -45.47110000     -31.66230000     -69.45770000
C      -45.16880000     -31.03440000     -71.69370000
C      -46.22940000     -30.21630000     -71.39080000
S      -44.84760000     -32.51720000     -68.04050000
S      -46.74150000     -30.46820000     -69.72590000
H      -46.76270000     -29.46520000     -71.97060000
