40
Properties=species:S:1:pos:R:3 #=T CELL(abcABC):=T 1.889726e+02=T 90.00000=T Traj:=T positionsangstrom=T Step:=T 0=T Bead:=T pbc="F F F"
C      -47.11320000     -35.59040000     -73.54690000
C      -47.05290000     -34.55730000     -72.58890000
C      -46.28940000     -34.83940000     -71.37640000
C      -45.66860000     -36.10700000     -71.16150000
C      -45.82620000     -37.08700000     -72.13970000
C      -46.59530000     -36.83630000     -73.27530000
H      -47.63020000     -35.42110000     -74.43670000
H      -46.06420000     -34.06780000     -70.68850000
H      -45.51220000     -38.15000000     -71.99940000
H      -46.66920000     -37.67170000     -73.89300000
C      -44.84210000     -36.18550000     -69.90730000
H      -44.96850000     -37.14050000     -69.44990000
H      -45.17460000     -35.46630000     -69.15670000
C      -47.69730000     -33.21370000     -72.86520000
H      -48.72950000     -33.40810000     -73.19520000
H      -47.81170000     -32.56170000     -71.91330000
S      -43.02150000     -36.00670000     -70.13710000
S      -46.88290000     -32.20960000     -74.28740000
C      -42.81760000     -34.82300000     -71.57390000
H      -41.91940000     -35.17140000     -72.14190000
H      -43.74940000     -34.94320000     -72.17290000
C      -45.05110000     -32.32170000     -73.88800000
H      -44.56340000     -32.40780000     -74.89240000
H      -44.93120000     -33.25460000     -73.42290000
C      -44.48800000     -31.11880000     -73.16360000
H      -43.50000000     -31.27300000     -73.01690000
H      -44.55530000     -30.18630000     -73.69440000
C      -42.60390000     -33.31770000     -71.29220000
H      -42.72480000     -32.84690000     -72.33160000
H      -41.61850000     -33.03710000     -70.96860000
C      -43.55890000     -32.72330000     -70.32710000
C      -43.60150000     -33.08760000     -68.98360000
C      -44.62380000     -31.77650000     -70.64470000
H      -42.79960000     -33.56280000     -68.44910000
C      -45.50100000     -31.54250000     -69.50040000
C      -45.17080000     -31.06900000     -71.80420000
C      -46.42100000     -30.53480000     -71.58230000
S      -44.89460000     -32.24280000     -68.07120000
S      -46.83700000     -30.57150000     -69.89960000
H      -46.87170000     -29.86210000     -72.30140000
