40
Properties=species:S:1:pos:R:3 #=T CELL(abcABC):=T 1.889726e+02=T 90.00000=T Traj:=T positionsangstrom=T Step:=T 0=T Bead:=T pbc="F F F"
C      -41.48880000     -32.16550000     -71.10690000
C      -42.50900000     -31.23700000     -71.32820000
C      -43.39770000     -30.95960000     -70.27400000
C      -43.39700000     -31.72660000     -69.09430000
C      -42.45800000     -32.72530000     -68.94230000
C      -41.52740000     -32.94950000     -69.98900000
H      -40.75840000     -32.16800000     -71.89770000
H      -44.03910000     -29.97770000     -70.38640000
H      -42.54010000     -33.48360000     -68.13730000
H      -40.74940000     -33.72070000     -70.02700000
C      -44.44810000     -31.50450000     -68.11080000
H      -45.04240000     -30.65410000     -68.26120000
H      -43.95730000     -31.42260000     -67.22060000
C      -42.51530000     -30.46580000     -72.61340000
H      -42.43640000     -29.34050000     -72.40890000
H      -41.74770000     -30.81000000     -73.31480000
S      -45.67740000     -32.97560000     -68.00010000
S      -44.13740000     -30.60880000     -73.43740000
C      -47.08750000     -32.32970000     -68.97230000
H      -47.97240000     -32.72990000     -68.41680000
H      -47.04540000     -31.14620000     -68.93850000
C      -44.60930000     -32.36900000     -73.02450000
H      -44.60500000     -32.57700000     -71.99680000
H      -43.78190000     -32.96020000     -73.49600000
C      -45.96680000     -32.63750000     -73.66670000
H      -46.75460000     -32.04940000     -73.26220000
H      -45.85950000     -32.44870000     -74.71610000
C      -47.14980000     -32.69020000     -70.50380000
H      -46.18130000     -32.40620000     -70.91970000
H      -47.91080000     -32.14500000     -71.07760000
C      -47.21580000     -34.18780000     -70.86680000
C      -47.64700000     -35.25340000     -70.05230000
C      -46.99920000     -34.68750000     -72.22190000
H      -47.75160000     -35.35030000     -68.99980000
C      -47.11520000     -36.06170000     -72.35160000
C      -46.45340000     -34.09430000     -73.42560000
C      -46.21670000     -35.06920000     -74.35590000
S      -47.58710000     -36.77330000     -70.88820000
S      -46.90730000     -36.72180000     -73.94530000
H      -45.70040000     -34.87100000     -75.26460000
