40
Properties=species:S:1:pos:R:3 #=T CELL(abcABC):=T 1.889726e+02=T 90.00000=T Traj:=T positionsangstrom=T Step:=T 0=T Bead:=T pbc="F F F"
C      -46.96770000     -35.73930000     -73.67750000
C      -47.11960000     -34.66060000     -72.75250000
C      -46.47180000     -34.76640000     -71.47830000
C      -45.73730000     -35.91950000     -71.13590000
C      -45.81350000     -37.03610000     -71.98170000
C      -46.43360000     -36.95370000     -73.19120000
H      -47.43260000     -35.67780000     -74.72570000
H      -46.55090000     -33.97840000     -70.72580000
H      -45.48220000     -37.97530000     -71.67470000
H      -46.52080000     -37.91650000     -73.78850000
C      -44.88790000     -36.05050000     -69.88210000
H      -44.94640000     -36.93360000     -69.22170000
H      -45.11420000     -35.28300000     -69.20470000
C      -47.74740000     -33.28950000     -73.06540000
H      -48.77250000     -33.46640000     -73.46250000
H      -47.64060000     -32.64940000     -72.19490000
S      -43.11040000     -35.94700000     -70.36260000
S      -46.90010000     -32.36200000     -74.39490000
C      -42.90200000     -34.58410000     -71.49640000
H      -42.10910000     -34.87900000     -72.22080000
H      -43.87640000     -34.37650000     -72.01790000
C      -45.07260000     -32.67890000     -74.10150000
H      -44.62990000     -32.63510000     -75.09560000
H      -45.03080000     -33.67020000     -73.53360000
C      -44.50800000     -31.52170000     -73.22130000
H      -43.45540000     -31.58430000     -73.10290000
H      -44.64390000     -30.59350000     -73.59890000
C      -42.40430000     -33.18630000     -70.88850000
H      -42.26520000     -32.42700000     -71.61660000
H      -41.46810000     -33.34820000     -70.30550000
C      -43.50340000     -32.61950000     -69.99760000
C      -43.51970000     -32.79520000     -68.62000000
C      -44.66400000     -31.86680000     -70.50330000
H      -42.88360000     -33.45660000     -68.15870000
C      -45.43340000     -31.44200000     -69.47420000
C      -45.18230000     -31.43080000     -71.83300000
C      -46.19950000     -30.57260000     -71.67400000
S      -44.96480000     -32.15710000     -67.90280000
S      -46.80270000     -30.40710000     -70.00790000
H      -46.67860000     -30.03500000     -72.50050000
