40
Properties=species:S:1:pos:R:3 #=T CELL(abcABC):=T 1.889726e+02=T 90.00000=T Traj:=T positionsangstrom=T Step:=T 0=T Bead:=T pbc="F F F"
C      -47.39390000     -35.83170000     -73.63040000
C      -47.32950000     -34.68720000     -72.80530000
C      -46.48460000     -34.71790000     -71.72200000
C      -45.68800000     -35.86210000     -71.45600000
C      -45.69220000     -36.99160000     -72.29410000
C      -46.63340000     -36.99230000     -73.38420000
H      -47.95270000     -35.80630000     -74.56170000
H      -46.53370000     -33.90870000     -71.01630000
H      -45.09160000     -37.96310000     -72.09120000
H      -46.90230000     -37.82160000     -74.02540000
C      -44.96280000     -35.76060000     -70.11020000
H      -45.16460000     -36.58600000     -69.44390000
H      -45.19470000     -34.73880000     -69.78080000
C      -47.95920000     -33.44610000     -73.36070000
H      -48.86050000     -33.53660000     -73.98020000
H      -48.16310000     -32.80120000     -72.51450000
S      -43.12800000     -36.03640000     -70.38100000
S      -46.72870000     -32.53470000     -74.52720000
C      -42.48290000     -34.56900000     -71.40500000
H      -41.43910000     -34.85400000     -71.73140000
H      -43.11580000     -34.37190000     -72.29570000
C      -44.96110000     -32.80180000     -73.77400000
H      -44.25370000     -32.92790000     -74.63800000
H      -45.11900000     -33.69420000     -73.16800000
C      -44.42790000     -31.58240000     -73.03110000
H      -43.38010000     -31.71780000     -72.92020000
H      -44.51080000     -30.67220000     -73.64730000
C      -42.31650000     -33.27720000     -70.63490000
H      -42.00430000     -32.50720000     -71.33780000
H      -41.46490000     -33.29460000     -69.97610000
C      -43.53660000     -32.63900000     -69.82600000
C      -43.66710000     -32.69660000     -68.42980000
C      -44.68480000     -31.95740000     -70.39460000
H      -42.87590000     -33.09360000     -67.74410000
C      -45.57170000     -31.45090000     -69.40070000
C      -45.00130000     -31.31370000     -71.64090000
C      -46.13940000     -30.59120000     -71.59010000
S      -45.06820000     -31.95160000     -67.81730000
S      -46.74270000     -30.34420000     -69.96940000
H      -46.63910000     -30.13580000     -72.43230000
