40
Properties=species:S:1:pos:R:3 #=T CELL(abcABC):=T 1.889726e+02=T 90.00000=T Traj:=T positionsangstrom=T Step:=T 0=T Bead:=T pbc="F F F"
C      -47.25690000     -35.86330000     -73.82120000
C      -47.17950000     -34.70740000     -73.03890000
C      -46.44610000     -34.73880000     -71.81540000
C      -45.76510000     -35.88670000     -71.47950000
C      -45.97480000     -37.05350000     -72.17860000
C      -46.70570000     -37.06710000     -73.34830000
H      -47.93770000     -35.85340000     -74.74610000
H      -46.38640000     -33.76830000     -71.29640000
H      -45.54790000     -38.03770000     -71.86270000
H      -46.87750000     -37.93420000     -73.85920000
C      -44.88160000     -35.99140000     -70.20410000
H      -45.21660000     -36.79220000     -69.52020000
H      -44.96450000     -35.11560000     -69.47210000
C      -47.81440000     -33.36040000     -73.40250000
H      -48.68930000     -33.45240000     -74.08780000
H      -47.98460000     -32.76250000     -72.47130000
S      -43.01790000     -35.97220000     -70.33840000
S      -46.68400000     -32.36930000     -74.54450000
C      -42.61440000     -34.39290000     -71.34150000
H      -41.76860000     -34.74360000     -71.94560000
H      -43.49000000     -34.22470000     -71.99620000
C      -45.00820000     -32.71290000     -74.00720000
H      -44.34610000     -32.67180000     -74.81120000
H      -45.06820000     -33.79370000     -73.64190000
C      -44.36690000     -31.71850000     -72.98810000
H      -43.32920000     -32.03090000     -72.87630000
H      -44.34470000     -30.86490000     -73.63110000
C      -42.33200000     -33.20470000     -70.47150000
H      -41.86820000     -32.40050000     -71.09070000
H      -41.62030000     -33.59560000     -69.73600000
C      -43.56800000     -32.71580000     -69.78140000
C      -43.72580000     -32.85670000     -68.40110000
C      -44.60410000     -31.83290000     -70.34380000
H      -43.00440000     -33.31580000     -67.71630000
C      -45.54290000     -31.39920000     -69.36230000
C      -45.02920000     -31.39120000     -71.67700000
C      -46.15480000     -30.63540000     -71.59750000
S      -45.12860000     -31.96880000     -67.75350000
S      -46.80980000     -30.38180000     -69.92010000
H      -46.64390000     -30.34150000     -72.53450000
