40
Properties=species:S:1:pos:R:3 #=T CELL(abcABC):=T 1.889726e+02=T 90.00000=T Traj:=T positionsangstrom=T Step:=T 0=T Bead:=T pbc="F F F"
C      -47.24060000     -35.92040000     -73.74350000
C      -46.96910000     -34.67340000     -73.08520000
C      -46.18430000     -34.76780000     -71.88640000
C      -45.73260000     -36.02110000     -71.40390000
C      -45.94000000     -37.18050000     -72.15980000
C      -46.62970000     -37.09580000     -73.32700000
H      -47.84310000     -35.84320000     -74.63310000
H      -45.96900000     -33.84900000     -71.25460000
H      -45.62340000     -38.16810000     -71.90890000
H      -46.66750000     -37.99260000     -73.94610000
C      -44.95890000     -36.02700000     -70.09980000
H      -45.29400000     -36.97970000     -69.78490000
H      -45.23750000     -35.28240000     -69.41250000
C      -47.54500000     -33.39170000     -73.47080000
H      -48.42200000     -33.62890000     -74.01720000
H      -47.95220000     -32.94310000     -72.59350000
S      -43.13580000     -35.99590000     -70.42130000
S      -46.57790000     -32.24790000     -74.48340000
C      -42.86940000     -34.49070000     -71.39740000
H      -42.13540000     -34.68820000     -72.16430000
H      -43.80760000     -34.34070000     -71.90410000
C      -44.88260000     -32.54780000     -73.99360000
H      -44.33130000     -32.57780000     -74.94380000
H      -44.82860000     -33.59440000     -73.62760000
C      -44.31470000     -31.58190000     -72.96530000
H      -43.18570000     -31.75500000     -72.68460000
H      -44.32570000     -30.54120000     -73.49530000
C      -42.50050000     -33.22000000     -70.63430000
H      -42.16140000     -32.46550000     -71.33120000
H      -41.66180000     -33.47330000     -69.95070000
C      -43.64110000     -32.63840000     -69.78990000
C      -43.69390000     -32.79490000     -68.40570000
C      -44.70050000     -31.81150000     -70.32710000
H      -43.16290000     -33.46740000     -67.72700000
C      -45.62320000     -31.43520000     -69.34620000
C      -45.07160000     -31.35330000     -71.66370000
C      -46.20360000     -30.60100000     -71.50070000
S      -45.11390000     -32.00440000     -67.72930000
S      -46.90870000     -30.43930000     -69.93470000
H      -46.63190000     -29.97590000     -72.24610000
