40
Properties=species:S:1:pos:R:3 #=T CELL(abcABC):=T 1.889726e+02=T 90.00000=T Traj:=T positionsangstrom=T Step:=T 0=T Bead:=T pbc="F F F"
C      -46.91870000     -35.62940000     -73.88590000
C      -46.81480000     -34.54480000     -72.99300000
C      -46.33310000     -34.65890000     -71.69930000
C      -45.81580000     -35.92170000     -71.32910000
C      -45.78670000     -36.97540000     -72.28350000
C      -46.35340000     -36.84510000     -73.51840000
H      -47.49290000     -35.58100000     -74.83440000
H      -46.36120000     -33.81890000     -71.03000000
H      -45.25650000     -37.80040000     -72.00840000
H      -46.34350000     -37.73270000     -74.20470000
C      -45.15420000     -36.11370000     -70.02720000
H      -45.35870000     -36.96680000     -69.43710000
H      -45.41820000     -35.34900000     -69.33040000
C      -47.45310000     -33.17200000     -73.44650000
H      -48.30740000     -33.29810000     -73.99980000
H      -47.70660000     -32.49560000     -72.61540000
S      -43.19430000     -36.05590000     -70.17350000
S      -46.29070000     -32.29430000     -74.61530000
C      -42.97330000     -34.61410000     -71.33490000
H      -42.24570000     -34.92820000     -72.02710000
H      -43.81260000     -34.44410000     -71.98800000
C      -44.63810000     -32.45730000     -73.84320000
H      -43.83420000     -32.50020000     -74.59870000
H      -44.63240000     -33.40130000     -73.30650000
C      -44.24690000     -31.29410000     -72.84320000
H      -43.16190000     -31.47110000     -72.65880000
H      -44.19140000     -30.38850000     -73.47710000
C      -42.60120000     -33.29450000     -70.69150000
H      -42.28500000     -32.64930000     -71.54770000
H      -41.74170000     -33.47130000     -70.05250000
C      -43.67420000     -32.64310000     -69.83270000
C      -43.86770000     -33.04050000     -68.49830000
C      -44.73520000     -31.77740000     -70.34290000
H      -43.18030000     -33.53910000     -67.88830000
C      -45.74580000     -31.58630000     -69.42780000
C      -45.06180000     -31.15450000     -71.60600000
C      -46.23800000     -30.45010000     -71.53120000
S      -45.33680000     -32.27430000     -67.85070000
S      -47.05680000     -30.63560000     -69.96380000
H      -46.82200000     -29.95200000     -72.29930000
