40
Properties=species:S:1:pos:R:3 #=T CELL(abcABC):=T 1.889726e+02=T 90.00000=T Traj:=T positionsangstrom=T Step:=T 0=T Bead:=T pbc="F F F"
C      -46.75700000     -35.50330000     -73.94880000
C      -46.65360000     -34.39040000     -73.11420000
C      -46.16920000     -34.51320000     -71.81650000
C      -45.63580000     -35.74950000     -71.38820000
C      -45.65570000     -36.85040000     -72.25310000
C      -46.25270000     -36.68900000     -73.54970000
H      -47.12870000     -35.42230000     -74.97280000
H      -46.17490000     -33.59910000     -71.19500000
H      -45.08810000     -37.72420000     -71.88210000
H      -46.40290000     -37.53710000     -74.28380000
C      -45.07830000     -35.91260000     -69.91610000
H      -45.59180000     -36.68420000     -69.36480000
H      -45.39840000     -35.04160000     -69.42590000
C      -47.22280000     -33.12630000     -73.60690000
H      -48.10640000     -33.32920000     -74.22190000
H      -47.48590000     -32.56620000     -72.72700000
S      -43.21030000     -36.10560000     -69.92270000
S      -46.10210000     -32.21120000     -74.79850000
C      -42.58910000     -34.65840000     -71.06130000
H      -41.56090000     -34.93540000     -71.20180000
H      -43.05340000     -34.68980000     -72.02240000
C      -44.51320000     -32.19020000     -73.85270000
H      -43.66860000     -32.15980000     -74.58590000
H      -44.40070000     -33.09790000     -73.28760000
C      -44.31400000     -31.06390000     -72.75960000
H      -43.25820000     -31.16350000     -72.38750000
H      -44.51170000     -30.11250000     -73.28360000
C      -42.54610000     -33.20450000     -70.48930000
H      -42.19430000     -32.51820000     -71.28810000
H      -41.81060000     -33.22250000     -69.71040000
C      -43.91090000     -32.82360000     -69.89890000
C      -44.04740000     -33.14970000     -68.57010000
C      -44.96290000     -31.95580000     -70.36550000
H      -43.52440000     -33.95390000     -68.00060000
C      -45.94930000     -31.81400000     -69.38980000
C      -45.16060000     -31.12640000     -71.56160000
C      -46.31330000     -30.37970000     -71.49480000
S      -45.66080000     -32.71720000     -67.94140000
S      -47.22190000     -30.69810000     -70.01500000
H      -46.83500000     -29.78860000     -72.26500000
