40
Properties=species:S:1:pos:R:3 #=T CELL(abcABC):=T 1.889726e+02=T 90.00000=T Traj:=T positionsangstrom=T Step:=T 0=T Bead:=T pbc="F F F"
C      -46.65490000     -35.53220000     -74.13650000
C      -46.61460000     -34.46050000     -73.23270000
C      -46.16410000     -34.70180000     -71.86190000
C      -45.58210000     -35.95070000     -71.48040000
C      -45.66260000     -36.96550000     -72.43440000
C      -46.18700000     -36.77610000     -73.75540000
H      -47.13360000     -35.32720000     -75.10810000
H      -46.28160000     -33.95290000     -71.11030000
H      -45.29160000     -37.87310000     -72.14760000
H      -46.27870000     -37.61650000     -74.46630000
C      -45.01790000     -36.10800000     -70.06190000
H      -45.12580000     -37.17580000     -69.69670000
H      -45.49950000     -35.36700000     -69.31470000
C      -47.12580000     -33.09230000     -73.57390000
H      -47.96360000     -33.18410000     -74.23020000
H      -47.48370000     -32.46540000     -72.72420000
S      -43.24030000     -35.94730000     -70.03610000
S      -45.95430000     -32.07060000     -74.54900000
C      -42.87320000     -34.52870000     -71.11480000
H      -42.00590000     -34.69450000     -71.81510000
H      -43.76750000     -34.46940000     -71.78810000
C      -44.32590000     -32.17100000     -73.72020000
H      -43.56400000     -32.09240000     -74.50620000
H      -44.17790000     -33.16690000     -73.23930000
C      -44.11930000     -31.01080000     -72.67940000
H      -43.08510000     -30.94010000     -72.48600000
H      -44.32050000     -30.06580000     -73.15180000
C      -42.67880000     -33.20170000     -70.36040000
H      -42.43510000     -32.55830000     -71.23860000
H      -41.76260000     -33.22600000     -69.75070000
C      -43.96590000     -32.78580000     -69.70990000
C      -44.30320000     -33.28060000     -68.49620000
C      -44.88720000     -31.85110000     -70.25050000
H      -43.67810000     -33.74160000     -67.83470000
C      -45.91110000     -31.68320000     -69.31970000
C      -45.05020000     -31.11580000     -71.53220000
C      -46.29290000     -30.46520000     -71.50980000
S      -45.88330000     -32.71080000     -67.96290000
S      -47.22260000     -30.77950000     -70.03330000
H      -46.74380000     -29.84010000     -72.26080000
