40
Properties=species:S:1:pos:R:3 #=T CELL(abcABC):=T 1.889726e+02=T 90.00000=T Traj:=T positionsangstrom=T Step:=T 0=T Bead:=T pbc="F F F"
C      -46.48680000     -35.47650000     -74.26830000
C      -46.54750000     -34.53710000     -73.25240000
C      -46.10540000     -34.87250000     -71.94690000
C      -45.57400000     -36.14760000     -71.62990000
C      -45.68710000     -37.12460000     -72.61780000
C      -46.08720000     -36.77480000     -73.86450000
H      -46.78960000     -35.21960000     -75.30440000
H      -46.05490000     -34.13480000     -71.17940000
H      -45.48020000     -38.14380000     -72.29500000
H      -46.03160000     -37.53310000     -74.57560000
C      -44.99560000     -36.48040000     -70.31220000
H      -44.82150000     -37.56370000     -70.33970000
H      -45.56260000     -36.03540000     -69.47910000
C      -46.98400000     -33.14480000     -73.51180000
H      -47.92290000     -33.13580000     -74.07850000
H      -47.10480000     -32.65150000     -72.54220000
S      -43.28310000     -35.93230000     -70.16890000
S      -45.84250000     -31.99200000     -74.42520000
C      -42.89930000     -34.42460000     -71.12630000
H      -41.91350000     -34.59700000     -71.39010000
H      -43.57910000     -34.35630000     -71.97100000
C      -44.28160000     -32.08420000     -73.49430000
H      -43.49600000     -32.00000000     -74.20800000
H      -44.30820000     -33.07820000     -72.98910000
C      -44.07350000     -30.97780000     -72.46200000
H      -42.99770000     -31.09270000     -72.07000000
H      -44.12470000     -30.01300000     -72.95290000
C      -42.71740000     -33.12250000     -70.27530000
H      -42.23300000     -32.36750000     -70.90620000
H      -42.00080000     -33.30960000     -69.48130000
C      -44.01630000     -32.70130000     -69.63290000
C      -44.34200000     -33.16820000     -68.41560000
C      -45.02140000     -31.90650000     -70.21690000
H      -43.59670000     -33.43980000     -67.70850000
C      -46.09640000     -31.76830000     -69.37270000
C      -45.08560000     -31.08520000     -71.38730000
C      -46.28050000     -30.35760000     -71.43480000
S      -45.94400000     -32.62820000     -67.93220000
S      -47.34200000     -30.76220000     -70.09780000
H      -46.65390000     -29.59510000     -72.13060000
