40
Properties=species:S:1:pos:R:3 #=T CELL(abcABC):=T 1.889726e+02=T 90.00000=T Traj:=T positionsangstrom=T Step:=T 0=T Bead:=T pbc="F F F"
C      -48.26710000     -32.33590000     -67.86390000
C      -47.06700000     -31.92270000     -68.51330000
C      -46.11840000     -32.89740000     -68.49800000
C      -46.29560000     -34.19480000     -68.00900000
C      -47.55610000     -34.57710000     -67.48160000
C      -48.46150000     -33.57140000     -67.28700000
H      -49.07540000     -31.57130000     -67.70570000
H      -45.15260000     -32.65580000     -69.05940000
H      -47.62310000     -35.60230000     -67.12820000
H      -49.25630000     -33.60470000     -66.59700000
C      -45.28420000     -35.25710000     -68.06000000
H      -45.28550000     -35.80480000     -67.12830000
H      -44.19340000     -34.82070000     -68.09320000
C      -46.87440000     -30.51560000     -69.01620000
H      -47.24200000     -29.74340000     -68.42680000
H      -45.78670000     -30.26960000     -69.01780000
S      -45.38430000     -36.57990000     -69.39890000
S      -47.52470000     -30.14010000     -70.75010000
C      -44.98430000     -35.67910000     -70.93020000
H      -44.75730000     -36.48910000     -71.69880000
H      -45.83930000     -35.02100000     -71.22310000
C      -46.18450000     -30.85800000     -71.76700000
H      -45.25510000     -30.41720000     -71.42670000
H      -46.33660000     -30.51580000     -72.77790000
C      -45.90860000     -32.38140000     -71.88880000
H      -45.44500000     -32.71210000     -70.99090000
H      -46.88390000     -32.84780000     -71.93200000
C      -43.72080000     -34.75730000     -70.94090000
H      -42.87920000     -35.25640000     -70.34620000
H      -43.95670000     -33.79380000     -70.49510000
C      -43.37100000     -34.50830000     -72.41400000
C      -42.31770000     -35.12740000     -73.04440000
C      -44.08470000     -33.59980000     -73.28620000
H      -41.53560000     -35.85800000     -72.59150000
C      -43.44680000     -33.57020000     -74.53030000
C      -45.17550000     -32.68690000     -73.21030000
C      -45.37120000     -32.00280000     -74.41470000
S      -41.97180000     -34.52520000     -74.67760000
S      -44.26430000     -32.52200000     -75.64310000
H      -46.19600000     -31.31990000     -74.64540000
