40
Properties=species:S:1:pos:R:3 #=T CELL(abcABC):=T 1.889726e+02=T 90.00000=T Traj:=T positionsangstrom=T Step:=T 0=T Bead:=T pbc="F F F"
C      -48.29160000     -32.44630000     -67.76440000
C      -47.13200000     -31.97230000     -68.45130000
C      -46.11350000     -32.94850000     -68.59550000
C      -46.26340000     -34.24230000     -68.11010000
C      -47.42520000     -34.61630000     -67.41370000
C      -48.44590000     -33.73700000     -67.24550000
H      -49.02930000     -31.64980000     -67.76280000
H      -45.13830000     -32.65850000     -69.04050000
H      -47.46260000     -35.58280000     -67.08340000
H      -49.30090000     -33.86860000     -66.58020000
C      -45.04590000     -35.16310000     -68.19010000
H      -44.71880000     -35.47970000     -67.21280000
H      -44.27480000     -34.50600000     -68.54860000
C      -46.79040000     -30.54480000     -68.83060000
H      -47.46520000     -29.89280000     -68.21610000
H      -45.73160000     -30.31180000     -68.66500000
S      -45.26910000     -36.63950000     -69.27600000
S      -47.43100000     -30.26270000     -70.53920000
C      -45.13550000     -35.98590000     -71.02510000
H      -45.02590000     -36.89310000     -71.63080000
H      -46.09230000     -35.61310000     -71.27680000
C      -46.10180000     -30.72540000     -71.74860000
H      -45.13490000     -30.46820000     -71.23220000
H      -46.16280000     -29.96400000     -72.56630000
C      -46.17280000     -32.21060000     -72.15100000
H      -46.07170000     -32.95150000     -71.30170000
H      -47.16380000     -32.44060000     -72.51800000
C      -43.91210000     -35.09500000     -71.12860000
H      -43.10030000     -35.78190000     -70.92710000
H      -43.89550000     -34.34310000     -70.37470000
C      -43.46520000     -34.47750000     -72.44230000
C      -42.38390000     -35.05420000     -73.06130000
C      -44.14360000     -33.48800000     -73.33410000
H      -41.72030000     -35.80970000     -72.56710000
C      -43.42940000     -33.36130000     -74.52560000
C      -45.26300000     -32.53360000     -73.28170000
C      -45.46190000     -31.92370000     -74.54610000
S      -42.04900000     -34.47380000     -74.72790000
S      -44.18360000     -32.32570000     -75.63660000
H      -46.16180000     -31.18700000     -74.78490000
