40
Properties=species:S:1:pos:R:3 #=T CELL(abcABC):=T 1.889726e+02=T 90.00000=T Traj:=T positionsangstrom=T Step:=T 0=T Bead:=T pbc="F F F"
C      -48.15310000     -32.48510000     -67.82740000
C      -46.93640000     -32.04880000     -68.30570000
C      -45.90570000     -33.05910000     -68.37440000
C      -46.12360000     -34.41520000     -68.01450000
C      -47.36010000     -34.73790000     -67.50110000
C      -48.35350000     -33.76940000     -67.33810000
H      -48.91480000     -31.65010000     -67.63780000
H      -44.87560000     -32.72100000     -68.52290000
H      -47.51230000     -35.74060000     -67.19600000
H      -49.38970000     -34.15880000     -67.08890000
C      -44.98820000     -35.33450000     -67.97490000
H      -44.97750000     -36.02260000     -67.04700000
H      -43.96920000     -34.91130000     -68.10940000
C      -46.83500000     -30.67010000     -68.75050000
H      -47.42790000     -29.99630000     -68.11220000
H      -45.84330000     -30.31270000     -68.74980000
S      -45.17140000     -36.67160000     -69.25530000
S      -47.43640000     -30.38620000     -70.48670000
C      -45.19870000     -35.74760000     -70.95310000
H      -45.17780000     -36.45880000     -71.80750000
H      -46.19800000     -35.30090000     -71.02100000
C      -46.03220000     -31.05310000     -71.45870000
H      -45.20070000     -31.23610000     -70.81390000
H      -45.70860000     -30.36340000     -72.21940000
C      -46.37730000     -32.33880000     -72.38500000
H      -46.42270000     -33.25500000     -71.71060000
H      -47.33410000     -32.19450000     -72.86500000
C      -44.15610000     -34.64310000     -71.12780000
H      -43.28200000     -34.91360000     -70.49950000
H      -44.57150000     -33.75090000     -70.59830000
C      -43.71430000     -34.40670000     -72.55490000
C      -42.65740000     -35.05410000     -73.16370000
C      -44.26880000     -33.49620000     -73.53510000
H      -42.05120000     -35.75280000     -72.65780000
C      -43.54330000     -33.37480000     -74.69640000
C      -45.31170000     -32.53380000     -73.41510000
C      -45.37920000     -31.71840000     -74.55230000
S      -42.07460000     -34.40390000     -74.71910000
S      -44.09790000     -32.10020000     -75.71420000
H      -45.85760000     -30.81310000     -74.78260000
