40
Properties=species:S:1:pos:R:3 #=T CELL(abcABC):=T 1.889726e+02=T 90.00000=T Traj:=T positionsangstrom=T Step:=T 0=T Bead:=T pbc="F F F"
C      -45.22760000     -34.44470000     -67.04740000
C      -44.41430000     -34.86350000     -68.09600000
C      -43.57880000     -33.85180000     -68.70600000
C      -43.61800000     -32.49070000     -68.32120000
C      -44.48700000     -32.12300000     -67.32860000
C      -45.29900000     -33.07730000     -66.71980000
H      -45.89800000     -35.18080000     -66.55120000
H      -42.76220000     -34.00660000     -69.46010000
H      -44.51920000     -31.08950000     -67.07300000
H      -45.89150000     -32.75540000     -65.87810000
C      -42.64720000     -31.40570000     -68.92580000
H      -41.80510000     -31.32630000     -68.27590000
H      -43.18450000     -30.40960000     -68.96850000
C      -44.54260000     -36.20750000     -68.75480000
H      -43.77730000     -36.16980000     -69.52320000
H      -44.32200000     -37.12910000     -68.18430000
S      -41.97690000     -31.82410000     -70.55490000
S      -46.20430000     -36.55900000     -69.47510000
C      -43.33850000     -31.23860000     -71.71110000
H      -43.71750000     -30.27330000     -71.39690000
H      -42.91140000     -31.13080000     -72.69760000
C      -46.55700000     -35.21710000     -70.71110000
H      -46.54580000     -34.19040000     -70.31270000
H      -47.58860000     -35.34620000     -70.88180000
C      -45.80100000     -35.29890000     -72.00520000
H      -44.76350000     -35.00120000     -71.92770000
H      -45.80060000     -36.31010000     -72.33620000
C      -44.43410000     -32.35880000     -71.80930000
H      -44.91910000     -32.47160000     -70.79140000
H      -44.01150000     -33.36830000     -71.99930000
C      -45.40580000     -32.08290000     -72.88940000
C      -45.49470000     -30.94190000     -73.66620000
C      -46.25930000     -33.13970000     -73.42700000
H      -44.98710000     -29.95200000     -73.47650000
C      -46.97940000     -32.69740000     -74.52570000
C      -46.47940000     -34.52580000     -73.09790000
C      -47.34940000     -35.12640000     -73.96040000
S      -46.69540000     -31.04620000     -74.95340000
S      -48.03000000     -33.97200000     -75.20660000
H      -47.82650000     -36.10690000     -73.93310000
