40
Properties=species:S:1:pos:R:3 #=T CELL(abcABC):=T 1.889726e+02=T 90.00000=T Traj:=T positionsangstrom=T Step:=T 0=T Bead:=T pbc="F F F"
C      -48.11210000     -32.74370000     -67.82360000
C      -46.79490000     -32.22510000     -68.04240000
C      -45.72610000     -33.12760000     -68.22940000
C      -45.87610000     -34.46630000     -67.89940000
C      -47.19680000     -34.95420000     -67.75420000
C      -48.35070000     -34.14530000     -67.80960000
H      -48.97620000     -32.11730000     -67.89640000
H      -44.67220000     -32.73340000     -68.10030000
H      -47.34260000     -36.10810000     -67.82330000
H      -49.31730000     -34.59290000     -67.69100000
C      -44.78380000     -35.50390000     -67.95350000
H      -44.76640000     -36.10670000     -67.05570000
H      -43.79540000     -34.99500000     -68.04060000
C      -46.69050000     -30.76860000     -68.49760000
H      -47.36970000     -30.16430000     -67.89120000
H      -45.62830000     -30.38970000     -68.48950000
S      -44.94120000     -36.66880000     -69.35450000
S      -47.34920000     -30.53190000     -70.29700000
C      -45.31460000     -35.53030000     -70.79350000
H      -45.54380000     -36.14210000     -71.66060000
H      -46.30550000     -35.08180000     -70.56840000
C      -46.01550000     -31.27880000     -71.29020000
H      -45.28090000     -31.81890000     -70.72520000
H      -45.39310000     -30.48020000     -71.71380000
C      -46.54720000     -32.05540000     -72.55020000
H      -46.92620000     -32.97080000     -72.14010000
H      -47.50000000     -31.63630000     -72.97750000
C      -44.21970000     -34.42050000     -71.04020000
H      -43.31820000     -34.76080000     -70.49320000
H      -44.59300000     -33.51260000     -70.54380000
C      -43.91380000     -34.20330000     -72.53820000
C      -42.83830000     -34.91310000     -73.05640000
C      -44.37480000     -33.16930000     -73.47180000
H      -42.36150000     -35.65260000     -72.57910000
C      -43.56280000     -33.14880000     -74.61340000
C      -45.54920000     -32.34410000     -73.61880000
C      -45.49420000     -31.67070000     -74.76160000
S      -42.22510000     -34.34460000     -74.67740000
S      -44.21640000     -32.07510000     -75.91670000
H      -46.37280000     -31.02130000     -75.01460000
