40
Properties=species:S:1:pos:R:3 #=T CELL(abcABC):=T 1.889726e+02=T 90.00000=T Traj:=T positionsangstrom=T Step:=T 0=T Bead:=T pbc="F F F"
C      -48.21670000     -32.89720000     -67.95230000
C      -46.92540000     -32.38010000     -68.19250000
C      -45.78610000     -33.23640000     -68.24320000
C      -45.98890000     -34.60940000     -68.11710000
C      -47.28870000     -35.10360000     -67.89660000
C      -48.38020000     -34.25660000     -67.74430000
H      -49.09980000     -32.25930000     -68.15100000
H      -44.76000000     -32.92490000     -68.11710000
H      -47.44680000     -36.19020000     -67.97320000
H      -49.35090000     -34.69570000     -67.49470000
C      -44.69690000     -35.52670000     -68.17360000
H      -44.49770000     -35.99960000     -67.18120000
H      -43.75300000     -35.00790000     -68.33880000
C      -46.74860000     -30.89660000     -68.38850000
H      -47.54460000     -30.50440000     -67.77110000
H      -45.80350000     -30.48900000     -67.95680000
S      -44.82210000     -36.72280000     -69.51710000
S      -47.05590000     -30.28840000     -70.04180000
C      -44.95520000     -35.54570000     -71.01990000
H      -44.71960000     -36.14910000     -71.92540000
H      -46.03840000     -35.35610000     -71.25050000
C      -45.76750000     -30.92040000     -71.18990000
H      -44.96750000     -31.30430000     -70.60300000
H      -45.35530000     -30.07410000     -71.76630000
C      -46.35540000     -31.98210000     -72.18940000
H      -46.56270000     -32.98440000     -71.85320000
H      -47.26630000     -31.58550000     -72.61280000
C      -44.14610000     -34.32810000     -71.03260000
H      -43.23010000     -34.28710000     -70.47560000
H      -44.79950000     -33.50000000     -70.71830000
C      -43.68370000     -33.95350000     -72.43040000
C      -42.68020000     -34.71960000     -73.02190000
C      -44.34480000     -33.08430000     -73.39700000
H      -42.04990000     -35.42520000     -72.52150000
C      -43.75500000     -33.18640000     -74.61250000
C      -45.41820000     -32.18940000     -73.37560000
C      -45.64150000     -31.63400000     -74.65140000
S      -42.56170000     -34.43890000     -74.82470000
S      -44.56750000     -32.27230000     -75.90180000
H      -46.38910000     -30.91100000     -74.80410000
