40
Properties=species:S:1:pos:R:3 #=T CELL(abcABC):=T 1.889726e+02=T 90.00000=T Traj:=T positionsangstrom=T Step:=T 0=T Bead:=T pbc="F F F"
C      -48.27460000     -33.03550000     -68.26050000
C      -46.94410000     -32.54270000     -68.40460000
C      -45.85600000     -33.38870000     -68.32010000
C      -46.05490000     -34.71390000     -67.98140000
C      -47.35440000     -35.15270000     -67.74510000
C      -48.49110000     -34.38640000     -68.01700000
H      -49.09620000     -32.34580000     -68.29540000
H      -44.86540000     -33.01310000     -68.46730000
H      -47.50780000     -36.13860000     -67.52740000
H      -49.45960000     -34.84040000     -68.06940000
C      -44.92750000     -35.68910000     -67.87800000
H      -44.92980000     -36.45980000     -67.11130000
H      -44.03560000     -35.02640000     -67.68020000
C      -46.65710000     -30.96640000     -68.36580000
H      -47.43150000     -30.44160000     -67.74990000
H      -45.76460000     -30.86420000     -67.87210000
S      -44.76420000     -36.67810000     -69.53910000
S      -46.75400000     -30.00160000     -69.89020000
C      -44.98020000     -35.51440000     -71.00000000
H      -45.24060000     -36.13290000     -71.88120000
H      -45.76070000     -34.83320000     -70.70440000
C      -45.63670000     -30.84530000     -71.19050000
H      -44.63400000     -30.96710000     -70.79710000
H      -45.59790000     -30.11020000     -71.93910000
C      -46.18640000     -32.13060000     -71.85590000
H      -45.98400000     -33.09760000     -71.31980000
H      -47.25930000     -32.12360000     -72.11100000
C      -43.72940000     -34.54410000     -71.16080000
H      -42.78290000     -34.88620000     -70.80510000
H      -43.91330000     -33.68910000     -70.50750000
C      -43.51630000     -34.18000000     -72.59400000
C      -42.55740000     -34.76160000     -73.37820000
C      -44.44820000     -33.33350000     -73.40950000
H      -41.90990000     -35.62580000     -73.08510000
C      -44.00140000     -33.26220000     -74.77010000
C      -45.45350000     -32.34410000     -73.17600000
C      -45.78000000     -31.59130000     -74.29100000
S      -42.60860000     -34.21460000     -75.09040000
S      -44.88110000     -32.04410000     -75.73810000
H      -46.60250000     -30.96380000     -74.44470000
