40
Properties=species:S:1:pos:R:3 #=T CELL(abcABC):=T 1.889726e+02=T 90.00000=T Traj:=T positionsangstrom=T Step:=T 0=T Bead:=T pbc="F F F"
C      -43.31240000     -36.64240000     -71.43090000
C      -43.33200000     -35.90350000     -72.58580000
C      -42.77260000     -34.57370000     -72.59620000
C      -42.18520000     -34.07350000     -71.45420000
C      -42.12130000     -34.83860000     -70.22880000
C      -42.65030000     -36.14010000     -70.24300000
H      -43.71930000     -37.62370000     -71.47400000
H      -42.80670000     -33.91830000     -73.46070000
H      -41.54520000     -34.53480000     -69.43070000
H      -42.59480000     -36.75370000     -69.32140000
C      -41.45410000     -32.75730000     -71.53120000
H      -41.61010000     -32.41050000     -72.54090000
H      -40.38090000     -32.66230000     -71.40940000
C      -43.82860000     -36.46520000     -73.86320000
H      -43.01260000     -36.46500000     -74.65400000
H      -44.09870000     -37.51740000     -73.78630000
S      -42.06260000     -31.53360000     -70.26760000
S      -45.32110000     -35.75500000     -74.56980000
C      -43.84310000     -31.91080000     -70.04580000
H      -43.94820000     -33.04300000     -70.15770000
H      -44.22360000     -31.58480000     -68.99110000
C      -46.45260000     -35.38110000     -73.11380000
H      -46.38320000     -36.29300000     -72.53680000
H      -47.46480000     -35.24120000     -73.54980000
C      -46.09250000     -34.07230000     -72.37720000
H      -45.17080000     -34.31510000     -71.82860000
H      -45.89910000     -33.39780000     -73.23290000
C      -44.72500000     -31.15480000     -71.04840000
H      -44.64730000     -31.61030000     -72.04350000
H      -44.45500000     -30.16810000     -71.16740000
C      -46.13340000     -31.21450000     -70.57750000
C      -46.57840000     -30.24770000     -69.75400000
C      -47.10990000     -32.25050000     -70.76260000
H      -46.04780000     -29.45550000     -69.27480000
C      -48.29260000     -31.96690000     -70.14450000
C      -47.13630000     -33.49520000     -71.48720000
C      -48.40780000     -34.03060000     -71.38050000
S      -48.30950000     -30.41970000     -69.23940000
S      -49.53390000     -33.13020000     -70.42110000
H      -48.75720000     -34.93500000     -71.91120000
