40
Properties=species:S:1:pos:R:3 #=T CELL(abcABC):=T 1.889726e+02=T 90.00000=T Traj:=T positionsangstrom=T Step:=T 0=T Bead:=T pbc="F F F"
C      -48.04270000     -32.83660000     -68.71090000
C      -46.75530000     -32.48220000     -68.30130000
C      -45.81730000     -33.46930000     -68.08920000
C      -46.01870000     -34.80300000     -68.36560000
C      -47.31350000     -35.17910000     -68.75970000
C      -48.29700000     -34.16980000     -68.97390000
H      -48.76660000     -32.07160000     -68.94810000
H      -44.87760000     -33.10010000     -67.77300000
H      -47.54620000     -36.25310000     -69.07690000
H      -49.28070000     -34.58540000     -69.29970000
C      -44.87690000     -35.73370000     -68.03320000
H      -45.07220000     -36.42780000     -67.11060000
H      -44.01990000     -35.16630000     -67.67490000
C      -46.27880000     -31.05260000     -68.06810000
H      -46.99240000     -30.66600000     -67.37840000
H      -45.27250000     -31.22660000     -67.53450000
S      -44.35070000     -36.76060000     -69.55650000
S      -46.19020000     -29.88430000     -69.58960000
C      -44.86520000     -35.58400000     -70.88870000
H      -45.04450000     -36.17070000     -71.79230000
H      -45.77730000     -35.06070000     -70.58030000
C      -45.27200000     -30.95040000     -70.79470000
H      -44.28650000     -31.33680000     -70.39400000
H      -44.94080000     -30.19470000     -71.55070000
C      -46.03100000     -32.01240000     -71.46370000
H      -46.02450000     -32.98700000     -70.96560000
H      -47.07630000     -31.61610000     -71.53820000
C      -43.73720000     -34.53570000     -71.20650000
H      -42.77330000     -34.95950000     -70.90960000
H      -43.83930000     -33.60660000     -70.62470000
C      -43.71640000     -34.22620000     -72.69120000
C      -42.94300000     -34.89590000     -73.59620000
C      -44.69250000     -33.34410000     -73.36720000
H      -42.20430000     -35.70320000     -73.34190000
C      -44.54350000     -33.34290000     -74.71930000
C      -45.52420000     -32.24450000     -72.88110000
C      -45.93620000     -31.41130000     -73.88670000
S      -43.30270000     -34.39200000     -75.26920000
S      -45.30450000     -31.93220000     -75.46830000
H      -46.75940000     -30.74900000     -73.88150000
