40
Properties=species:S:1:pos:R:3 #=T CELL(abcABC):=T 1.889726e+02=T 90.00000=T Traj:=T positionsangstrom=T Step:=T 0=T Bead:=T pbc="F F F"
C      -47.75610000     -32.80320000     -68.13550000
C      -46.38160000     -32.58760000     -67.98560000
C      -45.47630000     -33.67950000     -68.05600000
C      -46.07000000     -34.98030000     -68.25340000
C      -47.41310000     -35.12610000     -68.47670000
C      -48.31960000     -34.03670000     -68.43980000
H      -48.44110000     -31.96640000     -68.08180000
H      -44.37690000     -33.57130000     -67.91450000
H      -47.82770000     -36.17000000     -68.59090000
H      -49.33630000     -34.19340000     -68.36570000
C      -45.25900000     -36.23950000     -68.14760000
H      -45.89600000     -37.12640000     -67.89730000
H      -44.57700000     -36.16540000     -67.28520000
C      -45.91170000     -31.13110000     -67.79920000
H      -46.54020000     -30.63750000     -67.06950000
H      -44.86850000     -31.11800000     -67.43660000
S      -44.07560000     -36.54390000     -69.70380000
S      -46.02540000     -30.11870000     -69.35680000
C      -44.83050000     -35.76320000     -71.16620000
H      -44.89170000     -36.37680000     -72.03550000
H      -45.84530000     -35.39560000     -70.96090000
C      -45.25070000     -31.06310000     -70.73900000
H      -44.39810000     -31.58980000     -70.34950000
H      -44.86500000     -30.30860000     -71.41840000
C      -46.15760000     -32.18220000     -71.46010000
H      -45.92610000     -33.16260000     -70.95500000
H      -47.24070000     -31.99060000     -71.39760000
C      -43.86050000     -34.57030000     -71.52090000
H      -42.84660000     -34.87660000     -71.28340000
H      -44.04620000     -33.75640000     -70.84430000
C      -43.98650000     -34.24830000     -72.93270000
C      -43.17790000     -34.82020000     -73.86870000
C      -44.86110000     -33.24680000     -73.47520000
H      -42.57860000     -35.64740000     -73.64110000
C      -44.65540000     -33.12310000     -74.87910000
C      -45.66730000     -32.14170000     -72.91820000
C      -46.09500000     -31.28930000     -73.90290000
S      -43.47770000     -34.24220000     -75.54240000
S      -45.36750000     -31.69400000     -75.55480000
H      -46.89520000     -30.57170000     -73.74990000
