40
Properties=species:S:1:pos:R:3 #=T CELL(abcABC):=T 1.889726e+02=T 90.00000=T Traj:=T positionsangstrom=T Step:=T 0=T Bead:=T pbc="F F F"
C      -47.69050000     -32.78480000     -68.35010000
C      -46.30800000     -32.69740000     -68.14950000
C      -45.50370000     -33.91930000     -68.16550000
C      -46.11070000     -35.14340000     -68.12340000
C      -47.54010000     -35.19750000     -68.17710000
C      -48.29460000     -34.02290000     -68.36800000
H      -48.27070000     -31.91220000     -68.50360000
H      -44.44940000     -33.81740000     -68.06630000
H      -48.02200000     -36.19420000     -68.12330000
H      -49.32530000     -34.01840000     -68.71560000
C      -45.27050000     -36.40200000     -68.15830000
H      -45.96700000     -37.29110000     -68.36300000
H      -44.76100000     -36.49880000     -67.24920000
C      -45.53900000     -31.41270000     -68.01380000
H      -45.84610000     -30.98750000     -67.06740000
H      -44.47320000     -31.58320000     -67.96060000
S      -44.04930000     -36.62930000     -69.57400000
S      -45.92930000     -30.22970000     -69.33480000
C      -44.68260000     -35.66330000     -71.02580000
H      -44.74310000     -36.41110000     -71.84920000
H      -45.69680000     -35.35680000     -70.77640000
C      -45.21870000     -31.06870000     -70.73830000
H      -44.37480000     -31.64480000     -70.32340000
H      -44.77290000     -30.27440000     -71.34950000
C      -46.22770000     -31.89910000     -71.53340000
H      -46.31310000     -32.87320000     -71.06090000
H      -47.11610000     -31.26410000     -71.42670000
C      -43.73660000     -34.47850000     -71.49060000
H      -42.70470000     -34.81140000     -71.39060000
H      -43.70530000     -33.48160000     -70.96680000
C      -43.97690000     -34.11420000     -72.96180000
C      -43.29570000     -34.76190000     -73.96820000
C      -44.72370000     -33.03240000     -73.47870000
H      -42.67770000     -35.64580000     -73.88420000
C      -44.53570000     -32.87500000     -74.84070000
C      -45.77570000     -32.09310000     -72.99090000
C      -46.31680000     -31.32790000     -73.98040000
S      -43.55670000     -34.16060000     -75.56550000
S      -45.58620000     -31.62850000     -75.49920000
H      -47.15760000     -30.62970000     -73.80700000
