40
Properties=species:S:1:pos:R:3 #=T CELL(abcABC):=T 1.889726e+02=T 90.00000=T Traj:=T positionsangstrom=T Step:=T 0=T Bead:=T pbc="F F F"
C      -47.54060000     -32.90140000     -68.12480000
C      -46.14060000     -32.91700000     -68.17510000
C      -45.46460000     -34.15820000     -68.12530000
C      -46.16410000     -35.38780000     -68.23990000
C      -47.56690000     -35.38460000     -68.29670000
C      -48.19440000     -34.14470000     -68.30640000
H      -48.11560000     -31.99880000     -68.03820000
H      -44.42020000     -34.12330000     -68.28040000
H      -48.01300000     -36.31540000     -68.50450000
H      -49.31230000     -34.18290000     -68.41290000
C      -45.35880000     -36.64480000     -68.35730000
H      -46.04440000     -37.46260000     -68.54020000
H      -44.84760000     -36.89590000     -67.39990000
C      -45.33920000     -31.66990000     -68.13680000
H      -45.40790000     -31.25590000     -67.07550000
H      -44.26800000     -31.87400000     -68.29840000
S      -44.01740000     -36.48250000     -69.53460000
S      -45.78000000     -30.18760000     -69.16470000
C      -44.76740000     -35.69420000     -71.03090000
H      -44.98890000     -36.38860000     -71.88160000
H      -45.77440000     -35.33370000     -70.74370000
C      -45.19430000     -30.72550000     -70.92240000
H      -44.11750000     -31.00610000     -70.79350000
H      -45.26060000     -29.83650000     -71.59560000
C      -46.07900000     -31.72080000     -71.48680000
H      -46.05060000     -32.64940000     -70.93080000
H      -47.12650000     -31.45430000     -71.43680000
C      -43.87050000     -34.44230000     -71.54670000
H      -42.86080000     -34.73370000     -71.36000000
H      -44.09620000     -33.61930000     -70.81640000
C      -44.00310000     -34.03110000     -72.94840000
C      -43.24250000     -34.59310000     -73.90500000
C      -44.83990000     -32.97960000     -73.53470000
H      -42.43870000     -35.32090000     -73.65380000
C      -44.74660000     -32.90730000     -74.92020000
C      -45.81340000     -31.98650000     -72.94640000
C      -46.35310000     -31.23820000     -73.94890000
S      -43.54780000     -34.03010000     -75.54200000
S      -45.80870000     -31.70830000     -75.54740000
H      -47.01630000     -30.32960000     -73.77420000
