40
Properties=species:S:1:pos:R:3 #=T CELL(abcABC):=T 1.889726e+02=T 90.00000=T Traj:=T positionsangstrom=T Step:=T 0=T Bead:=T pbc="F F F"
C      -47.26380000     -32.93990000     -67.98660000
C      -45.88700000     -33.08360000     -68.10500000
C      -45.22560000     -34.31320000     -68.31110000
C      -46.03160000     -35.40150000     -68.52100000
C      -47.44690000     -35.29550000     -68.52810000
C      -48.07970000     -34.11950000     -68.10040000
H      -47.72000000     -31.97230000     -67.70870000
H      -44.08120000     -34.27910000     -68.48680000
H      -48.08690000     -36.14650000     -68.85120000
H      -49.13930000     -34.13730000     -68.13540000
C      -45.36240000     -36.75490000     -68.76130000
H      -46.07700000     -37.40880000     -69.22600000
H      -45.00870000     -37.16920000     -67.83410000
C      -45.07350000     -31.82320000     -68.14440000
H      -44.73770000     -31.43080000     -67.17660000
H      -44.08610000     -32.06490000     -68.61730000
S      -43.82610000     -36.64030000     -69.81090000
S      -45.93260000     -30.38360000     -68.98230000
C      -44.29790000     -35.49510000     -71.27880000
H      -43.88780000     -36.11920000     -72.13010000
H      -45.40230000     -35.33000000     -71.37920000
C      -45.33890000     -30.78270000     -70.69640000
H      -44.26100000     -31.05240000     -70.66630000
H      -45.40060000     -29.78620000     -71.19280000
C      -46.33040000     -31.80120000     -71.40130000
H      -46.30800000     -32.75050000     -70.84610000
H      -47.30880000     -31.38990000     -71.44010000
C      -43.59590000     -34.15240000     -71.46700000
H      -42.53870000     -34.24120000     -71.15550000
H      -43.98970000     -33.53360000     -70.72950000
C      -43.80810000     -33.69230000     -72.86460000
C      -43.25160000     -34.35350000     -73.92890000
C      -44.83390000     -32.75180000     -73.37650000
H      -42.48730000     -35.22590000     -73.87600000
C      -44.91100000     -32.77320000     -74.78490000
C      -45.94390000     -31.96240000     -72.86230000
C      -46.67510000     -31.35290000     -73.85250000
S      -43.85180000     -33.95820000     -75.47980000
S      -46.10500000     -31.67930000     -75.45880000
H      -47.52520000     -30.78190000     -73.68000000
