40
Properties=species:S:1:pos:R:3 #=T CELL(abcABC):=T 1.889726e+02=T 90.00000=T Traj:=T positionsangstrom=T Step:=T 0=T Bead:=T pbc="F F F"
C      -47.30830000     -33.00000000     -67.99010000
C      -45.88260000     -32.99910000     -68.11410000
C      -45.19330000     -34.19610000     -68.42970000
C      -45.90090000     -35.35920000     -68.59630000
C      -47.32580000     -35.36980000     -68.52060000
C      -48.00010000     -34.14980000     -68.19690000
H      -47.76790000     -32.10900000     -67.66770000
H      -44.08780000     -34.19510000     -68.57690000
H      -47.91710000     -36.26110000     -68.62930000
H      -49.09330000     -34.19120000     -68.22280000
C      -45.32230000     -36.67270000     -69.01180000
H      -46.05260000     -37.24390000     -69.65590000
H      -45.17980000     -37.34400000     -68.12300000
C      -45.19190000     -31.72430000     -67.90010000
H      -45.50580000     -31.40860000     -66.84200000
H      -44.11450000     -31.75810000     -67.92460000
S      -43.74270000     -36.57340000     -69.86410000
S      -45.79990000     -30.30240000     -68.90540000
C      -44.24190000     -35.71870000     -71.38940000
H      -43.89570000     -36.36780000     -72.19180000
H      -45.29540000     -35.74200000     -71.46840000
C      -45.36630000     -30.76920000     -70.68820000
H      -44.36650000     -31.20070000     -70.76690000
H      -45.44050000     -29.86900000     -71.27710000
C      -46.28410000     -31.93110000     -71.25220000
H      -46.03870000     -32.86500000     -70.70280000
H      -47.34900000     -31.70910000     -71.08740000
C      -43.76360000     -34.36880000     -71.50590000
H      -42.70280000     -34.24490000     -71.26130000
H      -44.38550000     -33.66890000     -70.89480000
C      -43.92190000     -33.79860000     -72.94020000
C      -43.12490000     -34.28860000     -73.94140000
C      -45.01900000     -32.94400000     -73.39730000
H      -42.15060000     -34.94160000     -73.84830000
C      -45.08050000     -32.87430000     -74.78450000
C      -46.00980000     -32.09120000     -72.76300000
C      -46.72960000     -31.40610000     -73.70930000
S      -43.68460000     -33.65550000     -75.54800000
S      -46.35010000     -31.79570000     -75.37120000
H      -47.40920000     -30.64960000     -73.45330000
