40
Properties=species:S:1:pos:R:3 #=T CELL(abcABC):=T 1.889726e+02=T 90.00000=T Traj:=T positionsangstrom=T Step:=T 0=T Bead:=T pbc="F F F"
C      -44.15770000     -33.80220000     -75.10700000
C      -44.94530000     -33.44220000     -73.98040000
C      -44.64670000     -33.99080000     -72.75600000
C      -43.59700000     -34.97820000     -72.59100000
C      -42.77350000     -35.31920000     -73.68780000
C      -43.09040000     -34.70460000     -74.96110000
H      -44.30680000     -33.20510000     -76.01300000
H      -45.39920000     -33.73670000     -71.92660000
H      -41.93290000     -35.87310000     -73.42690000
H      -42.40940000     -34.98680000     -75.76770000
C      -43.51960000     -35.69320000     -71.27030000
H      -43.06910000     -36.67040000     -71.47730000
H      -44.51530000     -35.78780000     -70.84510000
C      -46.09290000     -32.34630000     -74.08570000
H      -46.36570000     -32.20910000     -75.13270000
H      -47.01960000     -32.62980000     -73.59620000
S      -42.31800000     -34.89310000     -70.16230000
S      -45.66410000     -30.63560000     -73.65360000
C      -42.73220000     -33.16000000     -70.12980000
H      -41.85640000     -32.63390000     -69.89400000
H      -43.02700000     -32.78160000     -71.10910000
C      -44.92530000     -30.63710000     -71.95340000
H      -44.36520000     -29.71330000     -71.94430000
H      -44.20920000     -31.46520000     -71.83440000
C      -45.96050000     -30.51790000     -70.74420000
H      -45.26020000     -30.36460000     -69.89340000
H      -46.60660000     -29.68520000     -70.76550000
C      -43.85680000     -32.74400000     -69.07380000
H      -44.02580000     -31.68950000     -69.18400000
H      -43.34370000     -32.65070000     -68.07360000
C      -45.20760000     -33.45960000     -69.11620000
C      -45.37010000     -34.69650000     -68.55460000
C      -46.39950000     -32.95360000     -69.77530000
H      -44.70440000     -35.23140000     -67.87040000
C      -47.42890000     -33.86360000     -69.64410000
C      -46.80160000     -31.75470000     -70.49900000
C      -48.10530000     -31.85500000     -70.94670000
S      -47.07930000     -35.21480000     -68.56010000
S      -48.83970000     -33.40370000     -70.54410000
H      -48.61210000     -31.14930000     -71.55180000
