40
Properties=species:S:1:pos:R:3 #=T CELL(abcABC):=T 1.889726e+02=T 90.00000=T Traj:=T positionsangstrom=T Step:=T 0=T Bead:=T pbc="F F F"
C      -45.09050000     -34.51190000     -67.17330000
C      -44.44440000     -34.80860000     -68.40480000
C      -43.49030000     -33.92950000     -68.88700000
C      -43.28720000     -32.67530000     -68.27380000
C      -43.88680000     -32.40540000     -67.04530000
C      -44.80260000     -33.31440000     -66.52230000
H      -45.90260000     -35.16350000     -66.85330000
H      -42.98920000     -34.27220000     -69.81020000
H      -43.72850000     -31.45800000     -66.53210000
H      -45.19050000     -33.12960000     -65.51830000
C      -42.30530000     -31.69220000     -68.92470000
H      -41.33490000     -31.76590000     -68.37000000
H      -42.65220000     -30.66890000     -68.91240000
C      -44.72130000     -36.09800000     -69.12670000
H      -44.18400000     -36.16870000     -70.05400000
H      -44.32500000     -36.89540000     -68.44380000
S      -41.88820000     -32.06450000     -70.69770000
S      -46.53580000     -36.35360000     -69.53400000
C      -43.29510000     -31.33020000     -71.60020000
H      -43.61040000     -30.38200000     -71.16700000
H      -42.93840000     -31.19240000     -72.61510000
C      -46.80180000     -35.13340000     -70.96100000
H      -46.70920000     -34.14240000     -70.57990000
H      -47.86430000     -35.25950000     -71.14510000
C      -45.92800000     -35.43390000     -72.15240000
H      -44.82750000     -35.15180000     -72.04970000
H      -46.08690000     -36.49280000     -72.39530000
C      -44.41960000     -32.35260000     -71.69440000
H      -44.93260000     -32.52420000     -70.78500000
H      -43.89930000     -33.29130000     -71.83360000
C      -45.38200000     -32.17160000     -72.85080000
C      -45.54950000     -30.93740000     -73.39720000
C      -46.28590000     -33.12650000     -73.32290000
H      -45.07980000     -29.94310000     -73.14840000
C      -47.14070000     -32.54500000     -74.29110000
C      -46.51430000     -34.55520000     -73.22400000
C      -47.52700000     -34.97160000     -74.06120000
S      -46.75000000     -30.89650000     -74.71560000
S      -48.16270000     -33.69510000     -75.14050000
H      -47.69390000     -36.03850000     -74.19730000
