40
Properties=species:S:1:pos:R:3 #=T CELL(abcABC):=T 1.889726e+02=T 90.00000=T Traj:=T positionsangstrom=T Step:=T 0=T Bead:=T pbc="F F F"
C      -44.06610000     -33.50660000     -74.94650000
C      -45.01120000     -33.31110000     -73.87320000
C      -44.80810000     -34.17060000     -72.78800000
C      -43.72570000     -35.05100000     -72.59790000
C      -42.74890000     -35.08200000     -73.63700000
C      -42.93610000     -34.30490000     -74.80770000
H      -44.15740000     -33.09130000     -75.94700000
H      -45.48740000     -34.07950000     -71.92430000
H      -41.83930000     -35.62690000     -73.49620000
H      -42.26820000     -34.33120000     -75.67560000
C      -43.58170000     -35.77940000     -71.30380000
H      -43.12020000     -36.74940000     -71.41850000
H      -44.45360000     -35.86520000     -70.68060000
C      -46.19770000     -32.43710000     -73.88860000
H      -46.87550000     -32.48610000     -74.69250000
H      -46.70430000     -32.61400000     -72.97340000
S      -42.27270000     -35.01220000     -70.28850000
S      -45.82490000     -30.59800000     -73.64950000
C      -42.66190000     -33.22620000     -70.10930000
H      -41.63650000     -32.84240000     -70.03350000
H      -42.89960000     -32.82970000     -71.12960000
C      -45.05450000     -30.68850000     -71.95080000
H      -44.24680000     -29.94530000     -71.83280000
H      -44.39880000     -31.56520000     -71.85140000
C      -46.02950000     -30.54380000     -70.74990000
H      -45.42500000     -30.24370000     -69.89840000
H      -46.69850000     -29.71790000     -70.99430000
C      -43.73650000     -32.71190000     -69.07950000
H      -43.71120000     -31.64500000     -69.14880000
H      -43.33180000     -32.89360000     -68.11470000
C      -45.13590000     -33.38130000     -69.14340000
C      -45.30120000     -34.52040000     -68.41020000
C      -46.37200000     -32.97870000     -69.87040000
H      -44.55430000     -34.94470000     -67.84840000
C      -47.35870000     -33.92500000     -69.71310000
C      -46.88970000     -31.76950000     -70.50570000
C      -48.17840000     -31.92950000     -70.97790000
S      -46.92570000     -35.24540000     -68.66990000
S      -48.82580000     -33.51020000     -70.54410000
H      -48.69550000     -31.20470000     -71.50490000
