40
Properties=species:S:1:pos:R:3 #=T CELL(abcABC):=T 1.889726e+02=T 90.00000=T Traj:=T positionsangstrom=T Step:=T 0=T Bead:=T pbc="F F F"
C      -43.03850000     -30.01610000     -70.46460000
C      -44.23460000     -29.97530000     -71.18900000
C      -45.41660000     -30.43920000     -70.54940000
C      -45.38360000     -30.96850000     -69.28940000
C      -44.15780000     -31.06920000     -68.58520000
C      -42.98080000     -30.65330000     -69.21530000
H      -42.07460000     -29.67590000     -70.87970000
H      -46.35170000     -30.49560000     -71.06920000
H      -44.05630000     -31.48530000     -67.60350000
H      -42.12790000     -30.71270000     -68.61070000
C      -46.70980000     -31.28000000     -68.63110000
H      -47.55640000     -30.72720000     -69.01660000
H      -46.53590000     -31.02250000     -67.53100000
C      -44.34660000     -29.38460000     -72.58720000
H      -45.09280000     -28.52460000     -72.63080000
H      -43.38290000     -28.96300000     -72.87650000
S      -47.24230000     -33.08890000     -68.85930000
S      -45.10560000     -30.50420000     -73.87020000
C      -47.83190000     -33.10380000     -70.58200000
H      -48.85850000     -32.64390000     -70.56390000
H      -47.27200000     -32.58980000     -71.35060000
C      -44.58770000     -32.19060000     -73.36980000
H      -44.40570000     -32.11090000     -72.27890000
H      -43.75170000     -32.43040000     -73.85880000
C      -45.64740000     -33.32380000     -73.55210000
H      -46.62620000     -33.15810000     -73.03130000
H      -45.98200000     -33.27160000     -74.63780000
C      -47.97150000     -34.57050000     -71.10250000
H      -48.42110000     -34.51470000     -72.20330000
H      -48.88250000     -35.04240000     -70.60050000
C      -46.73790000     -35.44890000     -71.09630000
C      -46.69650000     -36.47630000     -70.16860000
C      -45.65520000     -35.48600000     -72.04010000
H      -47.43700000     -36.77620000     -69.46660000
C      -44.83790000     -36.63480000     -71.82940000
C      -45.14470000     -34.68760000     -73.13590000
C      -43.96860000     -35.22640000     -73.70050000
S      -45.25790000     -37.52990000     -70.44880000
S      -43.48310000     -36.81610000     -72.90010000
H      -43.31720000     -34.73840000     -74.42200000
