40
Properties=species:S:1:pos:R:3 #=T CELL(abcABC):=T 1.889726e+02=T 90.00000=T Traj:=T positionsangstrom=T Step:=T 0=T Bead:=T pbc="F F F"
C      -43.32410000     -30.33650000     -70.48490000
C      -44.50560000     -29.92590000     -71.18620000
C      -45.65950000     -30.14300000     -70.45190000
C      -45.63780000     -30.74930000     -69.17000000
C      -44.42580000     -31.02490000     -68.50050000
C      -43.25210000     -30.78640000     -69.19940000
H      -42.39450000     -30.25850000     -70.99780000
H      -46.64650000     -29.87370000     -70.92210000
H      -44.53340000     -31.41450000     -67.51050000
H      -42.26570000     -31.18890000     -68.84170000
C      -46.96380000     -31.07390000     -68.55540000
H      -47.89980000     -30.69790000     -69.08830000
H      -47.04310000     -30.99950000     -67.48610000
C      -44.51610000     -29.47960000     -72.59610000
H      -45.02980000     -28.52850000     -72.62270000
H      -43.50570000     -29.12950000     -73.00650000
S      -47.15770000     -33.00120000     -68.66630000
S      -45.23770000     -30.61590000     -73.79780000
C      -47.22070000     -33.01960000     -70.52750000
H      -47.83530000     -32.23960000     -70.91120000
H      -46.22570000     -32.79830000     -70.90520000
C      -44.64720000     -32.28910000     -73.27270000
H      -44.54230000     -32.42560000     -72.24980000
H      -43.57600000     -32.35120000     -73.65110000
C      -45.58930000     -33.41340000     -73.71820000
H      -46.49710000     -33.26460000     -73.07990000
H      -45.87520000     -33.38220000     -74.73930000
C      -47.67480000     -34.38870000     -71.11130000
H      -48.00960000     -34.29190000     -72.14410000
H      -48.51610000     -34.63460000     -70.35790000
C      -46.58510000     -35.44040000     -71.16790000
C      -46.64380000     -36.46430000     -70.30460000
C      -45.44480000     -35.45880000     -72.06450000
H      -47.27640000     -36.49610000     -69.48990000
C      -44.67190000     -36.57160000     -71.85210000
C      -44.98340000     -34.81040000     -73.26930000
C      -43.90520000     -35.38170000     -73.87270000
S      -45.30810000     -37.53520000     -70.54620000
S      -43.30270000     -36.85190000     -72.98110000
H      -43.47170000     -34.95300000     -74.81540000
