40
Properties=species:S:1:pos:R:3 #=T CELL(abcABC):=T 1.889726e+02=T 90.00000=T Traj:=T positionsangstrom=T Step:=T 0=T Bead:=T pbc="F F F"
C      -43.34360000     -30.51490000     -70.56440000
C      -44.52350000     -30.02980000     -71.21580000
C      -45.74070000     -30.13190000     -70.48330000
C      -45.75120000     -30.70070000     -69.15590000
C      -44.59000000     -31.02790000     -68.53040000
C      -43.33220000     -31.00640000     -69.27250000
H      -42.47250000     -30.56610000     -71.17800000
H      -46.61640000     -29.74820000     -70.93970000
H      -44.61680000     -31.58480000     -67.54830000
H      -42.44680000     -31.30950000     -68.83180000
C      -47.04570000     -31.05750000     -68.53170000
H      -47.71900000     -30.26200000     -68.99880000
H      -47.17130000     -30.83430000     -67.45470000
C      -44.52210000     -29.42100000     -72.58460000
H      -45.06910000     -28.44670000     -72.48420000
H      -43.49210000     -29.21220000     -73.02660000
S      -47.43600000     -32.85560000     -68.77820000
S      -45.48890000     -30.65340000     -73.73050000
C      -46.99660000     -33.06400000     -70.49990000
H      -47.34840000     -32.18620000     -71.01720000
H      -45.91940000     -32.88910000     -70.68490000
C      -44.57950000     -32.24680000     -73.33690000
H      -44.44970000     -32.35520000     -72.30270000
H      -43.56420000     -32.34260000     -73.80100000
C      -45.44350000     -33.42070000     -73.75660000
H      -46.44060000     -33.28610000     -73.31400000
H      -45.69300000     -33.38500000     -74.83170000
C      -47.49150000     -34.36840000     -71.14100000
H      -47.85620000     -34.10710000     -72.18080000
H      -48.38060000     -34.63790000     -70.50780000
C      -46.41130000     -35.39020000     -71.17680000
C      -46.51020000     -36.46230000     -70.31860000
C      -45.33160000     -35.45210000     -72.06620000
H      -47.29940000     -36.59640000     -69.64140000
C      -44.61470000     -36.64290000     -71.84660000
C      -44.85010000     -34.76240000     -73.22510000
C      -43.77070000     -35.38000000     -73.75580000
S      -45.20400000     -37.57060000     -70.53190000
S      -43.22360000     -36.80760000     -72.87630000
H      -43.13100000     -35.05560000     -74.56820000
