40
Properties=species:S:1:pos:R:3 #=T CELL(abcABC):=T 1.889726e+02=T 90.00000=T Traj:=T positionsangstrom=T Step:=T 0=T Bead:=T pbc="F F F"
C      -43.34490000     -30.17990000     -70.50300000
C      -44.55280000     -30.01580000     -71.09710000
C      -45.74420000     -30.28830000     -70.39160000
C      -45.71610000     -30.92560000     -69.17360000
C      -44.44130000     -31.10730000     -68.52280000
C      -43.29640000     -30.78000000     -69.19060000
H      -42.44880000     -29.79550000     -70.98190000
H      -46.75070000     -30.23820000     -70.86830000
H      -44.29360000     -31.66800000     -67.61130000
H      -42.30420000     -30.93810000     -68.72340000
C      -46.99960000     -31.23380000     -68.46800000
H      -47.80750000     -30.52350000     -68.72990000
H      -46.95290000     -31.30570000     -67.31650000
C      -44.61200000     -29.40340000     -72.47670000
H      -45.22900000     -28.50450000     -72.49270000
H      -43.56760000     -29.26120000     -72.78190000
S      -47.72340000     -32.86600000     -69.06460000
S      -45.49140000     -30.62930000     -73.67640000
C      -47.18960000     -33.06080000     -70.86360000
H      -47.74980000     -32.37690000     -71.47850000
H      -46.13470000     -32.92930000     -70.99500000
C      -44.62670000     -32.17010000     -73.20170000
H      -44.54400000     -32.09960000     -72.01360000
H      -43.62600000     -32.27830000     -73.65080000
C      -45.48260000     -33.40540000     -73.63670000
H      -46.46770000     -33.31190000     -73.30580000
H      -45.43970000     -33.35410000     -74.66280000
C      -47.53380000     -34.55020000     -71.30700000
H      -47.88670000     -34.45970000     -72.31920000
H      -48.41830000     -34.82230000     -70.79880000
C      -46.42150000     -35.53400000     -71.23680000
C      -46.47390000     -36.56840000     -70.31890000
C      -45.37910000     -35.63420000     -72.15180000
H      -47.18360000     -36.73380000     -69.48890000
C      -44.53190000     -36.64320000     -71.83180000
C      -44.85080000     -34.75110000     -73.19020000
C      -43.59920000     -35.18090000     -73.54230000
S      -45.11090000     -37.61540000     -70.52330000
S      -43.04540000     -36.62700000     -72.81210000
H      -42.91510000     -34.76570000     -74.28590000
