40
Properties=species:S:1:pos:R:3 #=T CELL(abcABC):=T 1.889726e+02=T 90.00000=T Traj:=T positionsangstrom=T Step:=T 0=T Bead:=T pbc="F F F"
C      -43.30510000     -30.16210000     -70.49410000
C      -44.56360000     -29.91110000     -71.10430000
C      -45.75370000     -30.28150000     -70.44980000
C      -45.76830000     -30.96150000     -69.21930000
C      -44.50400000     -31.25440000     -68.67740000
C      -43.29260000     -30.72740000     -69.20590000
H      -42.31060000     -29.94560000     -71.02270000
H      -46.65420000     -29.88350000     -70.90650000
H      -44.49560000     -31.81920000     -67.73030000
H      -42.41560000     -30.89530000     -68.59280000
C      -47.07610000     -31.37120000     -68.53760000
H      -47.83220000     -30.66650000     -68.60640000
H      -46.74550000     -31.30220000     -67.48140000
C      -44.67990000     -29.36390000     -72.48310000
H      -45.32390000     -28.46710000     -72.44360000
H      -43.71490000     -28.97770000     -72.82210000
S      -47.78770000     -32.97400000     -69.15780000
S      -45.46580000     -30.60480000     -73.67860000
C      -47.22230000     -33.24120000     -70.89140000
H      -47.62930000     -32.44750000     -71.55130000
H      -46.12580000     -32.96530000     -71.02660000
C      -44.50090000     -32.17100000     -73.16530000
H      -44.49710000     -32.15350000     -72.08330000
H      -43.51700000     -32.19410000     -73.50040000
C      -45.36830000     -33.36240000     -73.66360000
H      -46.43220000     -33.13790000     -73.51650000
H      -45.36140000     -33.38690000     -74.81010000
C      -47.64900000     -34.62950000     -71.34700000
H      -47.94730000     -34.61080000     -72.48900000
H      -48.49430000     -35.05560000     -70.77070000
C      -46.51460000     -35.55840000     -71.29790000
C      -46.56940000     -36.62400000     -70.38800000
C      -45.27570000     -35.49960000     -72.00910000
H      -47.42920000     -36.77120000     -69.75050000
C      -44.34710000     -36.44750000     -71.53180000
C      -44.81590000     -34.66930000     -73.14320000
C      -43.59820000     -35.12860000     -73.58640000
S      -45.09940000     -37.58000000     -70.51200000
S      -43.01260000     -36.60850000     -72.66950000
H      -42.87530000     -34.54600000     -74.18090000
