40
Properties=species:S:1:pos:R:3 #=T CELL(abcABC):=T 1.889726e+02=T 90.00000=T Traj:=T positionsangstrom=T Step:=T 0=T Bead:=T pbc="F F F"
C      -43.46620000     -30.36310000     -70.29580000
C      -44.63880000     -30.10650000     -70.96130000
C      -45.90630000     -30.40650000     -70.41380000
C      -45.96140000     -31.05290000     -69.12570000
C      -44.75370000     -31.25830000     -68.44290000
C      -43.53560000     -31.01610000     -69.07670000
H      -42.56700000     -30.16680000     -70.82230000
H      -46.79950000     -30.25930000     -71.06030000
H      -44.92130000     -31.71230000     -67.49650000
H      -42.62780000     -31.30400000     -68.54190000
C      -47.33310000     -31.59460000     -68.70740000
H      -48.04850000     -30.99230000     -69.31140000
H      -47.56900000     -31.54830000     -67.66400000
C      -44.56830000     -29.35820000     -72.31320000
H      -45.19720000     -28.45620000     -72.37410000
H      -43.52200000     -29.20960000     -72.59750000
S      -47.51050000     -33.35970000     -69.08630000
S      -45.22530000     -30.43900000     -73.74320000
C      -47.59250000     -33.08730000     -70.86010000
H      -48.51100000     -32.48770000     -71.12100000
H      -46.65680000     -32.54120000     -71.14520000
C      -44.35470000     -32.07040000     -73.16690000
H      -44.42230000     -32.11370000     -72.09150000
H      -43.30520000     -32.09010000     -73.59890000
C      -45.12150000     -33.28160000     -73.79850000
H      -46.09730000     -33.20910000     -73.45680000
H      -45.04160000     -33.28970000     -74.81320000
C      -47.75610000     -34.44040000     -71.58000000
H      -47.97330000     -34.37160000     -72.64770000
H      -48.65220000     -34.99100000     -71.17220000
C      -46.56520000     -35.33140000     -71.36950000
C      -46.64090000     -36.41830000     -70.48180000
C      -45.33120000     -35.41460000     -72.19170000
H      -47.36840000     -36.63720000     -69.69790000
C      -44.45280000     -36.40340000     -71.73510000
C      -44.59590000     -34.59260000     -73.18550000
C      -43.39990000     -35.09820000     -73.46450000
S      -45.18580000     -37.39560000     -70.56280000
S      -42.93440000     -36.56890000     -72.61410000
H      -42.79960000     -34.81720000     -74.33430000
