40
Properties=species:S:1:pos:R:3 #=T CELL(abcABC):=T 1.889726e+02=T 90.00000=T Traj:=T positionsangstrom=T Step:=T 0=T Bead:=T pbc="F F F"
C      -44.50010000     -33.61310000     -75.13220000
C      -45.33930000     -33.53020000     -73.97130000
C      -45.07390000     -34.31020000     -72.84810000
C      -43.86110000     -35.03080000     -72.75390000
C      -43.03050000     -35.10750000     -73.82970000
C      -43.28880000     -34.33200000     -74.93430000
H      -44.66200000     -32.96070000     -75.99660000
H      -45.79460000     -34.21680000     -72.02680000
H      -42.06810000     -35.65670000     -73.77130000
H      -42.53490000     -34.33470000     -75.76270000
C      -43.47230000     -35.81310000     -71.49310000
H      -43.16010000     -36.77520000     -71.76350000
H      -44.27240000     -35.92540000     -70.79880000
C      -46.68060000     -32.78860000     -73.95080000
H      -47.11920000     -32.94240000     -74.91590000
H      -47.34670000     -33.17680000     -73.16380000
S      -42.09290000     -34.93090000     -70.55280000
S      -46.35890000     -30.97240000     -73.82710000
C      -42.68450000     -33.19510000     -70.44470000
H      -41.81240000     -32.48240000     -70.47180000
H      -43.35720000     -33.07770000     -71.32330000
C      -45.06230000     -31.08550000     -72.39920000
H      -44.18810000     -30.45670000     -72.68790000
H      -44.68660000     -32.10790000     -72.25130000
C      -45.59870000     -30.64010000     -71.04350000
H      -44.77130000     -30.37290000     -70.36200000
H      -46.16060000     -29.68240000     -71.10040000
C      -43.52670000     -32.77350000     -69.17140000
H      -43.58950000     -31.69830000     -69.02330000
H      -43.04270000     -33.12500000     -68.26980000
C      -44.87140000     -33.38710000     -69.11630000
C      -44.99830000     -34.50110000     -68.33380000
C      -46.13030000     -32.90860000     -69.66660000
H      -44.10030000     -35.07630000     -67.93340000
C      -47.19890000     -33.73140000     -69.33350000
C      -46.50750000     -31.73370000     -70.44210000
C      -47.86170000     -31.69810000     -70.57110000
S      -46.70160000     -35.00250000     -68.34440000
S      -48.71930000     -33.06430000     -69.90780000
H      -48.36300000     -30.92210000     -71.17500000
