40
Properties=species:S:1:pos:R:3 #=T CELL(abcABC):=T 1.889726e+02=T 90.00000=T Traj:=T positionsangstrom=T Step:=T 0=T Bead:=T pbc="F F F"
C      -45.13000000     -34.55930000     -67.28930000
C      -44.49200000     -34.90650000     -68.48170000
C      -43.44780000     -34.05200000     -68.96920000
C      -43.16990000     -32.83640000     -68.36470000
C      -43.88250000     -32.52420000     -67.13780000
C      -44.82570000     -33.39170000     -66.58850000
H      -45.85890000     -35.29260000     -66.84640000
H      -42.91890000     -34.39520000     -69.88230000
H      -43.59610000     -31.66810000     -66.57530000
H      -45.38760000     -33.15920000     -65.68340000
C      -42.13450000     -31.89580000     -68.91280000
H      -41.21160000     -32.13900000     -68.44790000
H      -42.39250000     -30.86660000     -68.62520000
C      -44.82970000     -36.19020000     -69.16830000
H      -44.20990000     -36.29010000     -70.08660000
H      -44.59750000     -37.06020000     -68.56630000
S      -41.72520000     -31.99620000     -70.78010000
S      -46.65310000     -36.42630000     -69.49810000
C      -43.29620000     -31.38370000     -71.60150000
H      -43.81780000     -30.62370000     -70.99220000
H      -43.06190000     -30.80740000     -72.48450000
C      -46.96870000     -35.13440000     -70.91310000
H      -46.76420000     -34.16990000     -70.44950000
H      -47.99450000     -34.97930000     -71.17390000
C      -46.18010000     -35.46940000     -72.14270000
H      -45.08890000     -35.51830000     -72.09200000
H      -46.40300000     -36.52820000     -72.38110000
C      -44.23480000     -32.56530000     -71.84970000
H      -44.53960000     -32.98890000     -70.84940000
H      -43.70840000     -33.34600000     -72.30940000
C      -45.39360000     -32.15330000     -72.68750000
C      -45.59440000     -30.92530000     -73.19160000
C      -46.27130000     -33.10780000     -73.31520000
H      -44.94300000     -30.12620000     -72.93520000
C      -47.07740000     -32.43310000     -74.24440000
C      -46.67900000     -34.51760000     -73.23980000
C      -47.49410000     -34.83610000     -74.27690000
S      -46.84860000     -30.70090000     -74.33600000
S      -48.00780000     -33.49670000     -75.28940000
H      -47.96640000     -35.77910000     -74.39020000
