40
Properties=species:S:1:pos:R:3 #=T CELL(abcABC):=T 1.889726e+02=T 90.00000=T Traj:=T positionsangstrom=T Step:=T 0=T Bead:=T pbc="F F F"
C      -45.39650000     -34.05930000     -74.90550000
C      -45.88940000     -34.10390000     -73.54930000
C      -45.09830000     -34.56850000     -72.54770000
C      -43.76700000     -35.08140000     -72.76050000
C      -43.40180000     -35.20680000     -74.07420000
C      -44.12460000     -34.60250000     -75.13180000
H      -46.01790000     -33.67190000     -75.68210000
H      -45.37510000     -34.39430000     -71.46740000
H      -42.41050000     -35.57170000     -74.42850000
H      -43.66500000     -34.46710000     -76.06910000
C      -43.01530000     -35.54080000     -71.60750000
H      -42.42200000     -36.41340000     -71.84190000
H      -43.71830000     -35.79180000     -70.78330000
C      -47.21380000     -33.44620000     -73.20900000
H      -48.04070000     -33.80600000     -73.82940000
H      -47.37990000     -33.49870000     -72.12950000
S      -41.61830000     -34.36760000     -71.00050000
S      -47.00600000     -31.66830000     -73.73620000
C      -42.39230000     -32.67130000     -70.99640000
H      -41.49990000     -31.98030000     -70.87300000
H      -42.90680000     -32.57750000     -71.93260000
C      -45.63080000     -31.07180000     -72.65230000
H      -45.29250000     -30.22370000     -73.29180000
H      -44.82970000     -31.84240000     -72.52650000
C      -46.03400000     -30.49240000     -71.27230000
H      -45.03150000     -30.27460000     -70.85050000
H      -46.66670000     -29.57540000     -71.23780000
C      -43.27710000     -32.26200000     -69.81960000
H      -43.53300000     -31.23120000     -70.03370000
H      -42.64570000     -32.30700000     -68.91600000
C      -44.52210000     -33.06980000     -69.43480000
C      -44.43590000     -34.20480000     -68.73090000
C      -45.90860000     -32.69850000     -69.69720000
H      -43.40680000     -34.54680000     -68.31120000
C      -46.79770000     -33.58570000     -69.06650000
C      -46.68760000     -31.60520000     -70.40800000
C      -48.03590000     -31.83300000     -70.30840000
S      -45.98290000     -34.83920000     -68.27430000
S      -48.45730000     -33.17550000     -69.27970000
H      -48.75400000     -31.15200000     -70.68730000
