40
Properties=species:S:1:pos:R:3 #=T CELL(abcABC):=T 1.889726e+02=T 90.00000=T Traj:=T positionsangstrom=T Step:=T 0=T Bead:=T pbc="F F F"
C      -45.46570000     -33.99500000     -75.17520000
C      -45.91870000     -34.06270000     -73.85770000
C      -45.11090000     -34.54840000     -72.82620000
C      -43.84700000     -35.07480000     -73.11510000
C      -43.39400000     -35.06370000     -74.44560000
C      -44.25770000     -34.57380000     -75.46850000
H      -46.11970000     -33.59110000     -75.94800000
H      -45.49020000     -34.51490000     -71.77550000
H      -42.41210000     -35.52200000     -74.81070000
H      -43.93990000     -34.64950000     -76.48490000
C      -43.00350000     -35.68150000     -71.89140000
H      -42.45450000     -36.52230000     -72.17040000
H      -43.72080000     -36.05390000     -71.14790000
C      -47.29490000     -33.50950000     -73.51370000
H      -48.02210000     -33.80010000     -74.27300000
H      -47.61730000     -33.91340000     -72.50600000
S      -41.88160000     -34.50360000     -70.97330000
S      -47.35640000     -31.71900000     -73.62000000
C      -42.62690000     -32.73690000     -71.11000000
H      -41.81250000     -32.10220000     -71.54760000
H      -43.42100000     -32.84040000     -71.78880000
C      -45.81770000     -31.10110000     -72.77370000
H      -45.40190000     -30.31610000     -73.38580000
H      -45.14850000     -31.95240000     -72.73620000
C      -45.96450000     -30.64230000     -71.34340000
H      -45.02160000     -30.33640000     -70.89060000
H      -46.68490000     -29.87350000     -71.32740000
C      -43.07670000     -32.21460000     -69.76380000
H      -43.25800000     -31.14910000     -69.86690000
H      -42.21960000     -32.27350000     -69.07650000
C      -44.35110000     -33.01970000     -69.32380000
C      -44.23090000     -34.02160000     -68.43940000
C      -45.76550000     -32.61310000     -69.54950000
H      -43.25390000     -34.42410000     -68.12980000
C      -46.56740000     -33.50220000     -68.78920000
C      -46.50510000     -31.64250000     -70.30150000
C      -47.81080000     -31.80740000     -70.12690000
S      -45.74470000     -34.77870000     -67.93400000
S      -48.28440000     -33.10450000     -69.03430000
H      -48.53400000     -31.22900000     -70.64600000
