40
Properties=species:S:1:pos:R:3 #=T CELL(abcABC):=T 1.889726e+02=T 90.00000=T Traj:=T positionsangstrom=T Step:=T 0=T Bead:=T pbc="F F F"
C      -45.75840000     -33.87320000     -75.13890000
C      -46.32830000     -33.87610000     -73.87350000
C      -45.50720000     -34.46220000     -72.79360000
C      -44.18460000     -34.86920000     -73.05040000
C      -43.61570000     -34.74270000     -74.32560000
C      -44.46840000     -34.37870000     -75.33430000
H      -46.26870000     -33.57360000     -76.04050000
H      -46.00710000     -34.41610000     -71.78790000
H      -42.59070000     -35.04390000     -74.55140000
H      -44.01790000     -34.21620000     -76.31430000
C      -43.36240000     -35.44090000     -71.81210000
H      -42.99550000     -36.44790000     -72.09970000
H      -44.03000000     -35.60950000     -70.94310000
C      -47.65890000     -33.29270000     -73.62850000
H      -48.38290000     -33.55060000     -74.44680000
H      -48.16080000     -33.62170000     -72.77750000
S      -41.93210000     -34.53430000     -71.15700000
S      -47.46030000     -31.50810000     -73.74490000
C      -42.43810000     -32.68740000     -71.39080000
H      -41.57760000     -32.22940000     -71.83790000
H      -43.19250000     -32.65330000     -72.19200000
C      -46.01690000     -31.16220000     -72.64450000
H      -45.53950000     -30.40330000     -73.22100000
H      -45.17600000     -31.89370000     -72.64720000
C      -46.26640000     -30.80320000     -71.17630000
H      -45.37420000     -30.33870000     -70.71720000
H      -47.10340000     -30.15240000     -71.08240000
C      -42.97650000     -31.97520000     -70.16850000
H      -43.39270000     -31.06520000     -70.59430000
H      -42.18540000     -31.83840000     -69.43060000
C      -44.16110000     -32.81190000     -69.36280000
C      -43.74580000     -33.75500000     -68.43020000
C      -45.61550000     -32.78360000     -69.53790000
H      -42.72410000     -33.96250000     -68.11550000
C      -46.24480000     -33.70280000     -68.68920000
C      -46.57620000     -32.05360000     -70.39550000
C      -47.84130000     -32.40490000     -70.06260000
S      -45.14060000     -34.71470000     -67.75870000
S      -47.98400000     -33.68960000     -68.87670000
H      -48.73730000     -31.96970000     -70.47750000
