40
Properties=species:S:1:pos:R:3 #=T CELL(abcABC):=T 1.889726e+02=T 90.00000=T Traj:=T positionsangstrom=T Step:=T 0=T Bead:=T pbc="F F F"
C      -43.54130000     -30.16070000     -69.18680000
C      -44.51850000     -30.09900000     -70.16180000
C      -45.81710000     -30.61510000     -69.94590000
C      -46.05610000     -31.46000000     -68.86310000
C      -45.07700000     -31.56090000     -67.87010000
C      -43.86380000     -30.88600000     -67.98080000
H      -42.56170000     -29.79050000     -69.27050000
H      -46.59790000     -30.56670000     -70.71040000
H      -45.24470000     -32.05670000     -66.89600000
H      -43.19880000     -30.82590000     -67.11270000
C      -47.51530000     -32.04350000     -68.54690000
H      -48.16340000     -31.17880000     -68.78810000
H      -47.58020000     -32.34420000     -67.48610000
C      -43.95930000     -29.50470000     -71.47030000
H      -44.03210000     -28.41070000     -71.51310000
H      -42.92980000     -29.79590000     -71.57610000
S      -47.84320000     -33.61090000     -69.50470000
S      -44.79490000     -30.21750000     -72.98040000
C      -47.58410000     -33.11930000     -71.24150000
H      -48.39710000     -32.45440000     -71.48370000
H      -46.59240000     -32.65910000     -71.42440000
C      -44.20870000     -31.88320000     -72.69830000
H      -44.53820000     -32.21470000     -71.74030000
H      -43.11360000     -31.95140000     -72.60720000
C      -44.81440000     -32.89580000     -73.82880000
H      -45.87070000     -32.79380000     -73.98300000
H      -44.20030000     -32.67010000     -74.69540000
C      -47.59950000     -34.18630000     -72.25520000
H      -47.57720000     -33.69560000     -73.30240000
H      -48.63820000     -34.68420000     -72.35310000
C      -46.61520000     -35.27630000     -72.07890000
C      -46.81920000     -36.35760000     -71.21370000
C      -45.27070000     -35.26540000     -72.63790000
H      -47.76630000     -36.64580000     -70.64420000
C      -44.52920000     -36.49590000     -72.23820000
C      -44.50390000     -34.37560000     -73.47250000
C      -43.22780000     -34.87830000     -73.74140000
S      -45.45830000     -37.51980000     -71.18880000
S      -43.01290000     -36.54130000     -73.12020000
H      -42.41110000     -34.18440000     -74.01190000
