40
Properties=species:S:1:pos:R:3 #=T CELL(abcABC):=T 1.889726e+02=T 90.00000=T Traj:=T positionsangstrom=T Step:=T 0=T Bead:=T pbc="F F F"
C      -45.53640000     -33.65480000     -75.17730000
C      -46.02970000     -33.62800000     -73.85220000
C      -45.39640000     -34.37510000     -72.88320000
C      -44.10850000     -34.88590000     -73.12020000
C      -43.66440000     -34.91010000     -74.47950000
C      -44.32000000     -34.21710000     -75.48480000
H      -46.15340000     -33.23780000     -75.96900000
H      -45.74260000     -34.33180000     -71.80930000
H      -42.66570000     -35.26930000     -74.60720000
H      -43.98590000     -34.17470000     -76.53600000
C      -43.21830000     -35.54230000     -72.01280000
H      -42.85470000     -36.51510000     -72.25640000
H      -43.87790000     -35.44110000     -71.09270000
C      -47.41620000     -33.02670000     -73.54410000
H      -48.11890000     -33.15820000     -74.30720000
H      -47.87660000     -33.64320000     -72.74480000
S      -41.81620000     -34.37020000     -71.62340000
S      -47.40990000     -31.21550000     -73.15550000
C      -42.62610000     -32.72030000     -71.32990000
H      -41.83140000     -32.00810000     -71.68780000
H      -43.55980000     -32.67270000     -72.01600000
C      -45.93000000     -30.80110000     -72.26710000
H      -45.52180000     -29.88890000     -72.72610000
H      -45.13520000     -31.56660000     -72.46950000
C      -46.04620000     -30.62370000     -70.81520000
H      -45.00380000     -30.42750000     -70.43510000
H      -46.60310000     -29.67410000     -70.53340000
C      -42.99900000     -32.45700000     -69.87320000
H      -43.08660000     -31.34400000     -69.71830000
H      -42.10390000     -32.71740000     -69.25380000
C      -44.20070000     -33.20980000     -69.37350000
C      -44.06190000     -34.34520000     -68.68440000
C      -45.63920000     -32.92640000     -69.59880000
H      -43.21450000     -34.66320000     -68.24910000
C      -46.36320000     -33.85620000     -68.89110000
C      -46.57730000     -31.89920000     -70.11580000
C      -47.89970000     -32.18990000     -69.86390000
S      -45.50690000     -35.10350000     -68.06900000
S      -48.10430000     -33.71190000     -68.94760000
H      -48.66910000     -31.39990000     -69.99100000
