40
Properties=species:S:1:pos:R:3 #=T CELL(abcABC):=T 1.889726e+02=T 90.00000=T Traj:=T positionsangstrom=T Step:=T 0=T Bead:=T pbc="F F F"
C      -42.82990000     -31.30980000     -69.69300000
C      -43.85170000     -30.54650000     -70.36230000
C      -45.17700000     -30.65680000     -69.94770000
C      -45.60220000     -31.54340000     -68.96570000
C      -44.61560000     -32.28230000     -68.34770000
C      -43.25930000     -32.17420000     -68.68690000
H      -41.76170000     -31.29050000     -69.97570000
H      -45.91900000     -30.04440000     -70.49340000
H      -44.82170000     -33.00330000     -67.55630000
H      -42.55680000     -32.81020000     -68.12910000
C      -47.00330000     -31.67340000     -68.61770000
H      -47.57760000     -30.68370000     -68.65800000
H      -47.08020000     -32.03270000     -67.57820000
C      -43.46430000     -29.76130000     -71.59120000
H      -43.73480000     -28.67850000     -71.52810000
H      -42.39660000     -29.94670000     -71.70330000
S      -48.01380000     -33.02560000     -69.62010000
S      -44.39880000     -30.39460000     -73.14310000
C      -47.52380000     -32.47590000     -71.31170000
H      -48.12380000     -31.54090000     -71.57720000
H      -46.49750000     -32.18730000     -71.36340000
C      -43.76620000     -32.17780000     -73.12940000
H      -43.83110000     -32.64610000     -72.14050000
H      -42.69370000     -32.05490000     -73.37550000
C      -44.53450000     -33.14600000     -74.08800000
H      -45.55460000     -32.88470000     -74.29710000
H      -44.04050000     -33.25870000     -74.99580000
C      -47.85030000     -33.54640000     -72.32780000
H      -47.71390000     -33.23500000     -73.40050000
H      -48.90960000     -33.82820000     -72.22320000
C      -47.02760000     -34.75170000     -72.08440000
C      -47.53390000     -35.77310000     -71.27010000
C      -45.54690000     -34.93110000     -72.36630000
H      -48.57950000     -35.93840000     -71.03450000
C      -45.14070000     -36.13910000     -71.79590000
C      -44.49270000     -34.47860000     -73.30310000
C      -43.39920000     -35.35200000     -73.33300000
S      -46.38690000     -37.03580000     -70.95160000
S      -43.55710000     -36.73950000     -72.27270000
H      -42.52330000     -35.21270000     -73.89960000
