40
Properties=species:S:1:pos:R:3 #=T CELL(abcABC):=T 1.889726e+02=T 90.00000=T Traj:=T positionsangstrom=T Step:=T 0=T Bead:=T pbc="F F F"
C      -42.98270000     -31.41990000     -69.37120000
C      -43.62970000     -30.65390000     -70.33810000
C      -45.05510000     -30.48370000     -70.29820000
C      -45.74320000     -31.06690000     -69.28510000
C      -45.04680000     -31.79920000     -68.27020000
C      -43.65510000     -31.98160000     -68.28660000
H      -41.91220000     -31.42460000     -69.36170000
H      -45.59370000     -29.93610000     -71.09940000
H      -45.59940000     -32.23930000     -67.41800000
H      -43.09080000     -32.47820000     -67.55840000
C      -47.23360000     -30.87820000     -69.20290000
H      -47.44750000     -29.87410000     -69.68790000
H      -47.55060000     -30.69090000     -68.15410000
C      -42.88990000     -30.13940000     -71.61400000
H      -42.82670000     -29.03500000     -71.49020000
H      -41.86140000     -30.47410000     -71.59510000
S      -48.38540000     -32.25350000     -69.86370000
S      -43.76370000     -30.58930000     -73.14140000
C      -47.64760000     -32.53140000     -71.57910000
H      -48.07090000     -31.76430000     -72.29930000
H      -46.57000000     -32.43670000     -71.47050000
C      -43.42950000     -32.39840000     -73.30740000
H      -42.84220000     -32.62290000     -72.37200000
H      -42.80720000     -32.61210000     -74.15000000
C      -44.71650000     -33.16570000     -73.43600000
H      -45.68160000     -32.76610000     -72.97370000
H      -45.05400000     -33.03060000     -74.51010000
C      -47.89270000     -33.88350000     -72.30990000
H      -47.81740000     -33.77450000     -73.40590000
H      -48.88650000     -34.29540000     -72.13830000
C      -46.92290000     -34.98490000     -71.88830000
C      -47.51500000     -35.95440000     -71.12000000
C      -45.62670000     -35.31040000     -72.34190000
H      -48.59380000     -35.93640000     -70.87860000
C      -45.22980000     -36.57500000     -71.90330000
C      -44.59740000     -34.58470000     -73.04200000
C      -43.42260000     -35.27050000     -73.07370000
S      -46.45320000     -37.36560000     -70.91770000
S      -43.51270000     -36.88140000     -72.27060000
H      -42.43670000     -34.93090000     -73.41610000
