40
Properties=species:S:1:pos:R:3 #=T CELL(abcABC):=T 1.889726e+02=T 90.00000=T Traj:=T positionsangstrom=T Step:=T 0=T Bead:=T pbc="F F F"
C      -45.44320000     -34.52340000     -67.40000000
C      -44.52490000     -35.04560000     -68.31980000
C      -43.42890000     -34.28280000     -68.75170000
C      -43.23190000     -32.95930000     -68.30770000
C      -44.14160000     -32.45040000     -67.39150000
C      -45.16590000     -33.22090000     -66.90010000
H      -46.32060000     -35.04230000     -67.12760000
H      -42.77490000     -34.69130000     -69.48820000
H      -44.08160000     -31.39150000     -67.09680000
H      -45.84130000     -32.78160000     -66.21590000
C      -42.05500000     -32.18610000     -68.77490000
H      -41.12040000     -32.48470000     -68.35060000
H      -42.10430000     -31.15010000     -68.52010000
C      -44.78400000     -36.36580000     -69.06290000
H      -44.20670000     -36.38450000     -70.00000000
H      -44.45840000     -37.21680000     -68.45410000
S      -41.81430000     -32.17680000     -70.57170000
S      -46.40540000     -36.64250000     -69.73650000
C      -43.23630000     -31.42050000     -71.43790000
H      -43.53460000     -30.51830000     -70.91110000
H      -42.88190000     -31.17060000     -72.47430000
C      -46.63100000     -35.17530000     -70.95520000
H      -46.23700000     -34.22330000     -70.59610000
H      -47.67900000     -35.03700000     -71.10680000
C      -45.99770000     -35.40600000     -72.42330000
H      -44.90960000     -35.43590000     -72.33100000
H      -46.31190000     -36.38210000     -72.77740000
C      -44.52370000     -32.30470000     -71.53830000
H      -45.15210000     -32.17760000     -70.64840000
H      -44.30820000     -33.42420000     -71.56100000
C      -45.46140000     -31.95810000     -72.62170000
C      -45.53740000     -30.68300000     -73.16080000
C      -46.24020000     -32.96250000     -73.39560000
H      -45.14990000     -29.79600000     -72.78670000
C      -47.00400000     -32.28730000     -74.30930000
C      -46.52800000     -34.36840000     -73.37600000
C      -47.45560000     -34.79380000     -74.25030000
S      -46.77900000     -30.53300000     -74.48740000
S      -48.11290000     -33.46980000     -75.10950000
H      -47.86110000     -35.81990000     -74.25230000
