40
Properties=species:S:1:pos:R:3 #=T CELL(abcABC):=T 1.889726e+02=T 90.00000=T Traj:=T positionsangstrom=T Step:=T 0=T Bead:=T pbc="F F F"
C      -46.07120000     -33.16540000     -75.09080000
C      -46.19450000     -33.13400000     -73.72200000
C      -45.25980000     -33.87770000     -72.91890000
C      -44.23980000     -34.63640000     -73.43730000
C      -44.14270000     -34.58930000     -74.83030000
C      -45.02580000     -33.89280000     -75.65570000
H      -46.82860000     -32.63500000     -75.73210000
H      -45.39950000     -33.94070000     -71.84420000
H      -43.38450000     -35.24250000     -75.29360000
H      -44.95230000     -33.93840000     -76.66800000
C      -43.37210000     -35.57830000     -72.58780000
H      -43.04160000     -36.42770000     -73.20690000
H      -44.04550000     -35.95470000     -71.74390000
C      -47.18230000     -32.26550000     -73.03850000
H      -48.10540000     -32.18470000     -73.65440000
H      -47.41330000     -32.76060000     -72.09730000
S      -41.87140000     -34.64500000     -72.02570000
S      -46.74300000     -30.53770000     -72.71430000
C      -42.48590000     -33.05790000     -71.25650000
H      -41.67250000     -32.29320000     -71.15860000
H      -43.28450000     -32.57870000     -71.92790000
C      -45.31340000     -30.65620000     -71.57580000
H      -44.65640000     -29.82790000     -71.83610000
H      -44.77230000     -31.57900000     -71.84230000
C      -45.61650000     -30.64600000     -70.13630000
H      -44.62750000     -30.56560000     -69.63880000
H      -46.09210000     -29.71200000     -69.81930000
C      -42.98390000     -33.07270000     -69.78540000
H      -43.18980000     -32.03540000     -69.46160000
H      -42.21050000     -33.55010000     -69.14050000
C      -44.36130000     -33.81800000     -69.62880000
C      -44.29860000     -35.11840000     -69.26830000
C      -45.72850000     -33.26650000     -69.60940000
H      -43.38040000     -35.65730000     -69.00070000
C      -46.60740000     -34.21470000     -69.06900000
C      -46.33160000     -31.90110000     -69.58580000
C      -47.63840000     -31.93310000     -69.15000000
S      -45.80740000     -35.80930000     -68.86950000
S      -48.12790000     -33.57900000     -68.67540000
H      -48.32200000     -31.14400000     -68.92280000
