40
Properties=species:S:1:pos:R:3 #=T CELL(abcABC):=T 1.889726e+02=T 90.00000=T Traj:=T positionsangstrom=T Step:=T 0=T Bead:=T pbc="F F F"
C      -45.92310000     -32.53210000     -74.87010000
C      -46.13370000     -32.80840000     -73.50110000
C      -45.45450000     -33.86260000     -72.88840000
C      -44.55980000     -34.68980000     -73.59470000
C      -44.41430000     -34.43230000     -74.93940000
C      -45.09110000     -33.39550000     -75.59880000
H      -46.38950000     -31.67280000     -75.32040000
H      -45.61880000     -33.96130000     -71.81160000
H      -43.84530000     -35.14640000     -75.48420000
H      -45.08870000     -33.31750000     -76.73370000
C      -43.69960000     -35.65270000     -72.93590000
H      -43.21200000     -36.49870000     -73.51300000
H      -44.24910000     -36.14320000     -72.08340000
C      -47.07290000     -31.92640000     -72.71410000
H      -47.90730000     -31.82910000     -73.33980000
H      -47.42500000     -32.35950000     -71.81840000
S      -42.19590000     -34.88200000     -72.07060000
S      -46.35060000     -30.23790000     -72.47530000
C      -42.65430000     -33.25300000     -71.47940000
H      -41.88380000     -32.45770000     -71.78650000
H      -43.58760000     -32.90690000     -71.99710000
C      -44.99270000     -30.47800000     -71.21180000
H      -44.25280000     -29.74610000     -71.28760000
H      -44.42860000     -31.32410000     -71.58760000
C      -45.42020000     -30.75500000     -69.65310000
H      -44.58730000     -30.73410000     -68.98330000
H      -46.18840000     -29.96290000     -69.32440000
C      -42.96010000     -33.24050000     -69.96040000
H      -42.87900000     -32.28190000     -69.46020000
H      -42.10590000     -33.70820000     -69.37630000
C      -44.25840000     -33.93360000     -69.49510000
C      -44.20290000     -35.27470000     -69.22090000
C      -45.62800000     -33.32810000     -69.43070000
H      -43.33930000     -35.90710000     -69.32380000
C      -46.53990000     -34.34540000     -69.07930000
C      -46.27830000     -32.09340000     -69.65410000
C      -47.66480000     -32.17510000     -69.43830000
S      -45.80900000     -35.94410000     -68.93350000
S      -48.15960000     -33.77270000     -69.06580000
H      -48.35780000     -31.33090000     -69.59480000
