40
Properties=species:S:1:pos:R:3 #=T CELL(abcABC):=T 1.889726e+02=T 90.00000=T Traj:=T positionsangstrom=T Step:=T 0=T Bead:=T pbc="F F F"
C      -45.51390000     -31.63920000     -74.65180000
C      -46.18300000     -32.11930000     -73.53150000
C      -45.78820000     -33.37950000     -72.98690000
C      -44.75880000     -34.13210000     -73.57330000
C      -44.01120000     -33.60760000     -74.69520000
C      -44.46680000     -32.42720000     -75.22970000
H      -45.83450000     -30.72310000     -75.07110000
H      -46.13150000     -33.70660000     -71.99550000
H      -43.39530000     -34.18970000     -75.32590000
H      -44.00350000     -32.06960000     -76.17170000
C      -44.32100000     -35.46920000     -72.95030000
H      -44.21160000     -36.22730000     -73.74040000
H      -44.96210000     -35.93160000     -72.19070000
C      -47.17630000     -31.29460000     -72.74460000
H      -47.91650000     -30.78970000     -73.35360000
H      -47.73220000     -32.04620000     -72.16860000
S      -42.60610000     -35.47480000     -72.27470000
S      -46.37950000     -29.96860000     -71.78390000
C      -42.58160000     -33.84440000     -71.33410000
H      -41.56530000     -33.36530000     -71.48230000
H      -43.28430000     -33.17710000     -71.79540000
C      -44.64270000     -30.65930000     -71.09370000
H      -43.94560000     -29.80230000     -71.03120000
H      -44.22170000     -31.37890000     -71.74640000
C      -44.94380000     -31.07910000     -69.65410000
H      -44.04220000     -31.38640000     -69.16540000
H      -45.44570000     -30.26230000     -69.18530000
C      -42.86890000     -33.99260000     -69.87140000
H      -42.62970000     -33.06640000     -69.47340000
H      -42.14760000     -34.79600000     -69.48620000
C      -44.23410000     -34.49320000     -69.54370000
C      -44.52330000     -35.80720000     -69.27970000
C      -45.46670000     -33.71170000     -69.57980000
H      -43.74880000     -36.51270000     -68.96060000
C      -46.57810000     -34.57190000     -69.38940000
C      -45.83870000     -32.30640000     -69.60050000
C      -47.19000000     -32.17130000     -69.63980000
S      -46.20590000     -36.24210000     -69.13360000
S      -48.09550000     -33.72160000     -69.49590000
H      -47.75690000     -31.23340000     -69.70690000
