40
Properties=species:S:1:pos:R:3 #=T CELL(abcABC):=T 1.889726e+02=T 90.00000=T Traj:=T positionsangstrom=T Step:=T 0=T Bead:=T pbc="F F F"
C      -45.27740000     -31.31420000     -74.53000000
C      -46.07350000     -31.88730000     -73.53680000
C      -45.85060000     -33.21490000     -73.06920000
C      -44.76590000     -33.98000000     -73.63770000
C      -44.03630000     -33.40850000     -74.69990000
C      -44.32630000     -32.08990000     -75.15350000
H      -45.38610000     -30.28660000     -74.97950000
H      -46.32670000     -33.55760000     -72.14120000
H      -43.26630000     -34.05980000     -75.20810000
H      -43.85090000     -31.57170000     -75.97800000
C      -44.52900000     -35.29450000     -73.05010000
H      -44.57900000     -36.23890000     -73.61320000
H      -45.22250000     -35.32880000     -72.24220000
C      -47.10860000     -31.08150000     -72.77840000
H      -47.72080000     -30.31810000     -73.37730000
H      -47.84270000     -31.68940000     -72.28370000
S      -42.81940000     -35.43030000     -72.33730000
S      -46.25660000     -29.83800000     -71.64100000
C      -42.59040000     -33.92940000     -71.19120000
H      -41.58790000     -33.60390000     -71.27190000
H      -43.28530000     -33.13490000     -71.49320000
C      -44.73690000     -30.68130000     -71.09640000
H      -44.02040000     -29.84430000     -71.09600000
H      -44.28880000     -31.38040000     -71.87710000
C      -44.71160000     -31.42920000     -69.74340000
H      -43.72920000     -31.81770000     -69.43870000
H      -44.96040000     -30.76160000     -68.93140000
C      -42.91940000     -34.24790000     -69.72330000
H      -42.72660000     -33.31220000     -69.17670000
H      -42.24330000     -34.95890000     -69.40050000
C      -44.31510000     -34.77310000     -69.60910000
C      -44.62220000     -36.09360000     -69.39860000
C      -45.43200000     -33.94130000     -69.65510000
H      -43.90680000     -36.89140000     -69.39190000
C      -46.57960000     -34.68020000     -69.48940000
C      -45.72400000     -32.51800000     -69.72810000
C      -47.06250000     -32.28630000     -69.55500000
S      -46.32790000     -36.40320000     -69.29700000
S      -48.06140000     -33.70080000     -69.32910000
H      -47.43090000     -31.28630000     -69.29130000
