40
Properties=species:S:1:pos:R:3 #=T CELL(abcABC):=T 1.889726e+02=T 90.00000=T Traj:=T positionsangstrom=T Step:=T 0=T Bead:=T pbc="F F F"
C      -45.53750000     -34.53980000     -67.61950000
C      -44.53090000     -35.07930000     -68.44760000
C      -43.47450000     -34.31920000     -68.82260000
C      -43.34710000     -32.95390000     -68.35460000
C      -44.24660000     -32.47980000     -67.42530000
C      -45.38120000     -33.26260000     -67.09980000
H      -46.51080000     -35.09320000     -67.34180000
H      -42.75670000     -34.74240000     -69.54130000
H      -44.13750000     -31.48700000     -67.05260000
H      -46.07030000     -32.70300000     -66.43750000
C      -42.09960000     -32.11070000     -68.76100000
H      -41.25130000     -32.71670000     -68.34550000
H      -42.22770000     -31.07480000     -68.37490000
C      -44.70940000     -36.52610000     -68.83460000
H      -43.91120000     -37.08670000     -69.33140000
H      -44.90760000     -37.05860000     -67.86250000
S      -41.75610000     -32.17130000     -70.62700000
S      -46.33410000     -36.81590000     -69.85160000
C      -43.21110000     -31.30840000     -71.45140000
H      -43.37140000     -30.30690000     -70.95790000
H      -42.88170000     -31.11160000     -72.44350000
C      -46.60960000     -35.21840000     -70.79040000
H      -46.08680000     -34.40350000     -70.27160000
H      -47.73080000     -35.03010000     -70.81090000
C      -46.02090000     -35.26980000     -72.19340000
H      -44.97090000     -35.00340000     -72.10740000
H      -45.96490000     -36.24770000     -72.66660000
C      -44.38990000     -32.30820000     -71.50330000
H      -44.88310000     -32.47760000     -70.49680000
H      -43.96130000     -33.25880000     -71.80170000
C      -45.43390000     -31.98180000     -72.61550000
C      -45.50250000     -30.70720000     -73.18630000
C      -46.33760000     -32.92450000     -73.27600000
H      -45.02440000     -29.72570000     -72.92470000
C      -47.06810000     -32.21000000     -74.28740000
C      -46.69370000     -34.32590000     -73.18300000
C      -47.59940000     -34.73330000     -74.15850000
S      -46.70240000     -30.53240000     -74.45510000
S      -48.02560000     -33.35040000     -75.16250000
H      -48.05150000     -35.68350000     -74.21610000
