40
Properties=species:S:1:pos:R:3 #=T CELL(abcABC):=T 1.889726e+02=T 90.00000=T Traj:=T positionsangstrom=T Step:=T 0=T Bead:=T pbc="F F F"
C      -45.03160000     -31.07140000     -74.61800000
C      -45.70860000     -31.60570000     -73.48530000
C      -45.65210000     -32.97440000     -73.28600000
C      -44.89540000     -33.78170000     -74.19400000
C      -44.24570000     -33.24580000     -75.28810000
C      -44.33680000     -31.87500000     -75.53160000
H      -45.11370000     -29.98200000     -74.78810000
H      -46.18430000     -33.52830000     -72.58090000
H      -43.66450000     -33.81730000     -76.00220000
H      -43.80580000     -31.40940000     -76.31490000
C      -44.63760000     -35.20480000     -73.82670000
H      -44.40340000     -35.81070000     -74.72420000
H      -45.51330000     -35.65670000     -73.35770000
C      -46.46920000     -30.80800000     -72.51220000
H      -47.09950000     -30.05980000     -73.06530000
H      -47.13110000     -31.44420000     -71.91360000
S      -43.24070000     -35.58150000     -72.66460000
S      -45.40120000     -29.64490000     -71.48460000
C      -42.88560000     -34.03460000     -71.62840000
H      -41.90290000     -33.57270000     -71.90660000
H      -43.68100000     -33.32780000     -71.92500000
C      -44.37410000     -30.93260000     -70.53480000
H      -43.37940000     -30.50150000     -70.52920000
H      -44.33460000     -31.77320000     -71.26670000
C      -44.85460000     -31.41670000     -69.17700000
H      -43.96600000     -31.73990000     -68.56880000
H      -45.31460000     -30.61310000     -68.62300000
C      -42.99980000     -34.37910000     -70.06550000
H      -42.85710000     -33.40690000     -69.55420000
H      -42.20110000     -35.06100000     -69.74310000
C      -44.37020000     -34.88000000     -69.64380000
C      -44.71220000     -36.20470000     -69.71890000
C      -45.59670000     -34.01680000     -69.32350000
H      -44.10770000     -36.99500000     -70.08920000
C      -46.77770000     -34.77700000     -69.24760000
C      -45.91200000     -32.61560000     -69.09270000
C      -47.25280000     -32.39460000     -68.78050000
S      -46.47400000     -36.52000000     -69.37640000
S      -48.33130000     -33.85980000     -68.89040000
H      -47.67790000     -31.44170000     -68.54020000
