40
Properties=species:S:1:pos:R:3 #=T CELL(abcABC):=T 1.889726e+02=T 90.00000=T Traj:=T positionsangstrom=T Step:=T 0=T Bead:=T pbc="F F F"
C      -45.19420000     -30.94360000     -74.65480000
C      -45.73050000     -31.48070000     -73.48390000
C      -45.61710000     -32.81900000     -73.19110000
C      -44.80150000     -33.61540000     -74.07580000
C      -44.29000000     -33.08790000     -75.22610000
C      -44.38290000     -31.71290000     -75.55330000
H      -45.41090000     -29.88810000     -74.97720000
H      -46.02870000     -33.10550000     -72.22910000
H      -43.70640000     -33.81720000     -75.87660000
H      -43.92340000     -31.25670000     -76.44650000
C      -44.73230000     -35.08370000     -73.94650000
H      -44.56820000     -35.49400000     -74.96300000
H      -45.73130000     -35.50650000     -73.71830000
C      -46.42630000     -30.67990000     -72.39570000
H      -46.98820000     -29.86040000     -72.61990000
H      -46.92670000     -31.41500000     -71.68600000
S      -43.41300000     -35.78360000     -72.75730000
S      -45.12510000     -29.78580000     -71.41160000
C      -42.93590000     -34.30170000     -71.74110000
H      -41.96040000     -34.01250000     -71.97850000
H      -43.53320000     -33.46370000     -72.09430000
C      -44.09940000     -30.93150000     -70.41140000
H      -43.27150000     -30.31300000     -70.03370000
H      -43.67480000     -31.83080000     -70.90920000
C      -44.86580000     -31.40270000     -69.16780000
H      -44.12570000     -31.63310000     -68.40330000
H      -45.42550000     -30.55840000     -68.83480000
C      -43.08980000     -34.46160000     -70.17450000
H      -42.92360000     -33.50220000     -69.67210000
H      -42.35830000     -35.18110000     -69.88610000
C      -44.47010000     -34.94030000     -69.79430000
C      -44.89310000     -36.23780000     -69.86960000
C      -45.61660000     -34.07640000     -69.45740000
H      -44.33400000     -37.16770000     -70.03300000
C      -46.80160000     -34.76980000     -69.18210000
C      -45.90330000     -32.58870000     -69.30950000
C      -47.21060000     -32.40870000     -68.83540000
S      -46.57430000     -36.49210000     -69.42960000
S      -48.19960000     -33.82230000     -68.63800000
H      -47.59510000     -31.36040000     -68.69860000
