40
Properties=species:S:1:pos:R:3 #=T CELL(abcABC):=T 1.889726e+02=T 90.00000=T Traj:=T positionsangstrom=T Step:=T 0=T Bead:=T pbc="F F F"
C      -45.56740000     -34.54060000     -67.66930000
C      -44.52940000     -35.14200000     -68.44180000
C      -43.51670000     -34.33970000     -68.92190000
C      -43.37570000     -32.95730000     -68.55850000
C      -44.44040000     -32.36440000     -67.77240000
C      -45.51660000     -33.19190000     -67.31310000
H      -46.27790000     -35.22540000     -67.19270000
H      -42.70660000     -34.75600000     -69.49370000
H      -44.43180000     -31.33260000     -67.40310000
H      -46.18540000     -32.74220000     -66.59230000
C      -42.12950000     -32.17180000     -68.85020000
H      -41.28180000     -32.65140000     -68.40770000
H      -42.14460000     -31.19720000     -68.36290000
C      -44.65560000     -36.55740000     -68.98890000
H      -43.81990000     -36.75960000     -69.67020000
H      -44.56760000     -37.21710000     -68.13760000
S      -41.69370000     -32.02320000     -70.60950000
S      -46.30360000     -36.92690000     -69.79970000
C      -43.25500000     -31.30560000     -71.28740000
H      -43.62390000     -30.58670000     -70.54760000
H      -42.91890000     -30.83610000     -72.21720000
C      -46.73240000     -35.35220000     -70.68210000
H      -46.29650000     -34.56930000     -70.02390000
H      -47.79860000     -35.39910000     -70.66270000
C      -46.09540000     -35.18060000     -72.04420000
H      -45.02050000     -34.92880000     -71.79810000
H      -46.10770000     -36.18050000     -72.38340000
C      -44.37720000     -32.33530000     -71.57900000
H      -44.78670000     -32.69700000     -70.62450000
H      -43.92220000     -33.27200000     -72.03340000
C      -45.43440000     -31.94070000     -72.55250000
C      -45.49580000     -30.68790000     -73.12600000
C      -46.24430000     -32.85590000     -73.26310000
H      -45.00050000     -29.77640000     -72.79250000
C      -47.00550000     -32.27460000     -74.27200000
C      -46.62870000     -34.27000000     -73.07250000
C      -47.59560000     -34.66470000     -73.96690000
S      -46.65940000     -30.58130000     -74.50780000
S      -48.00290000     -33.36890000     -75.06390000
H      -48.06350000     -35.62610000     -74.12190000
