40
Properties=species:S:1:pos:R:3 #=T CELL(abcABC):=T 1.889726e+02=T 90.00000=T Traj:=T positionsangstrom=T Step:=T 0=T Bead:=T pbc="F F F"
C      -44.40980000     -30.66360000     -73.70320000
C      -45.18880000     -31.17450000     -72.65160000
C      -45.64610000     -32.49760000     -72.79790000
C      -45.30750000     -33.32030000     -73.93570000
C      -44.40590000     -32.77600000     -74.84940000
C      -44.06440000     -31.40900000     -74.80310000
H      -43.94320000     -29.67940000     -73.61150000
H      -46.31790000     -32.88560000     -72.06140000
H      -44.06590000     -33.45620000     -75.58860000
H      -43.60320000     -30.93760000     -75.65580000
C      -45.80640000     -34.75220000     -73.99930000
H      -46.25020000     -34.93460000     -74.98960000
H      -46.68870000     -34.91640000     -73.39330000
C      -45.66070000     -30.32180000     -71.45000000
H      -45.95460000     -29.31460000     -71.69900000
H      -46.48970000     -30.86170000     -70.91400000
S      -44.33240000     -35.98350000     -73.67120000
S      -44.30120000     -30.07320000     -70.21960000
C      -43.33590000     -35.35400000     -72.31800000
H      -42.30420000     -35.64050000     -72.45160000
H      -43.34610000     -34.25400000     -72.26940000
C      -43.28930000     -31.56810000     -70.34560000
H      -42.26100000     -31.22600000     -70.19420000
H      -43.25600000     -32.07920000     -71.28060000
C      -43.63020000     -32.55770000     -69.20170000
H      -42.98430000     -33.47600000     -69.13640000
H      -43.41360000     -32.14920000     -68.18900000
C      -43.80880000     -35.87420000     -70.94460000
H      -43.02510000     -35.58810000     -70.22810000
H      -43.77240000     -36.93410000     -70.86670000
C      -45.21150000     -35.47140000     -70.52550000
C      -46.25350000     -36.34550000     -70.85080000
C      -45.61160000     -34.28590000     -69.74250000
H      -46.27940000     -37.16780000     -71.57130000
C      -46.99090000     -34.25390000     -69.51000000
C      -45.05670000     -33.03730000     -69.28220000
C      -45.92190000     -32.35190000     -68.45640000
S      -47.77560000     -35.73900000     -70.22840000
S      -47.54140000     -32.92520000     -68.55640000
H      -45.62180000     -31.39920000     -68.13210000
