40
Properties=species:S:1:pos:R:3 #=T CELL(abcABC):=T 1.889726e+02=T 90.00000=T Traj:=T positionsangstrom=T Step:=T 0=T Bead:=T pbc="F F F"
C      -44.07950000     -30.69840000     -73.66140000
C      -45.02970000     -31.06760000     -72.71670000
C      -45.60700000     -32.37070000     -72.80070000
C      -45.35510000     -33.21110000     -73.92550000
C      -44.44260000     -32.75100000     -74.86070000
C      -43.82950000     -31.52920000     -74.72360000
H      -43.80100000     -29.61370000     -73.65260000
H      -46.29790000     -32.66120000     -72.06080000
H      -44.30210000     -33.31320000     -75.83110000
H      -43.19070000     -31.22150000     -75.50930000
C      -45.86510000     -34.63600000     -73.97380000
H      -46.56610000     -34.88030000     -74.81450000
H      -46.48110000     -34.80020000     -73.02600000
C      -45.50440000     -30.21500000     -71.56380000
H      -45.68270000     -29.15460000     -71.84830000
H      -46.42100000     -30.51910000     -71.14360000
S      -44.44300000     -35.79740000     -73.88660000
S      -44.16680000     -30.15610000     -70.19050000
C      -43.56310000     -35.29130000     -72.38310000
H      -42.53200000     -35.57070000     -72.60170000
H      -43.63650000     -34.18380000     -72.38000000
C      -43.21570000     -31.76750000     -70.34100000
H      -42.18620000     -31.39000000     -70.22200000
H      -43.39770000     -32.17470000     -71.39080000
C      -43.57400000     -32.91500000     -69.23450000
H      -43.06170000     -33.83040000     -69.54450000
H      -43.12990000     -32.60840000     -68.29670000
C      -43.97550000     -35.92260000     -71.06280000
H      -43.18440000     -35.59250000     -70.30220000
H      -43.83550000     -37.04320000     -71.16300000
C      -45.32910000     -35.50910000     -70.52320000
C      -46.45150000     -36.29930000     -70.82030000
C      -45.65380000     -34.34870000     -69.69810000
H      -46.43270000     -37.09410000     -71.52350000
C      -46.99840000     -34.27240000     -69.48910000
C      -45.01000000     -33.21590000     -69.09670000
C      -45.85150000     -32.53300000     -68.25720000
S      -47.93730000     -35.52210000     -70.23540000
S      -47.50110000     -33.03090000     -68.42600000
H      -45.48900000     -31.64560000     -67.72360000
