40
Properties=species:S:1:pos:R:3 #=T CELL(abcABC):=T 1.889726e+02=T 90.00000=T Traj:=T positionsangstrom=T Step:=T 0=T Bead:=T pbc="F F F"
C      -44.06710000     -30.54730000     -73.67210000
C      -44.97920000     -30.97730000     -72.71800000
C      -45.58970000     -32.23490000     -72.93910000
C      -45.22700000     -33.14350000     -73.93050000
C      -44.25150000     -32.67670000     -74.86270000
C      -43.66900000     -31.45480000     -74.69780000
H      -43.55530000     -29.63390000     -73.41290000
H      -46.29610000     -32.65080000     -72.18240000
H      -43.87590000     -33.35540000     -75.69250000
H      -42.75900000     -31.27950000     -75.28600000
C      -45.91600000     -34.47710000     -74.05340000
H      -46.23480000     -34.68200000     -75.02610000
H      -46.69110000     -34.72310000     -73.34440000
C      -45.24540000     -30.15020000     -71.52620000
H      -45.15110000     -29.08230000     -71.86380000
H      -46.28220000     -30.32010000     -71.15640000
S      -44.67060000     -35.84570000     -73.86570000
S      -43.96740000     -30.36430000     -70.13220000
C      -43.64030000     -35.20590000     -72.42940000
H      -42.58620000     -35.48510000     -72.66530000
H      -43.63820000     -34.14520000     -72.41350000
C      -43.19010000     -32.12270000     -70.34410000
H      -42.13340000     -32.06400000     -70.27710000
H      -43.33470000     -32.44770000     -71.35890000
C      -43.52850000     -33.02490000     -69.18850000
H      -42.96400000     -33.95060000     -69.32110000
H      -43.27080000     -32.46330000     -68.28660000
C      -44.08570000     -35.82710000     -71.09390000
H      -43.53530000     -35.62590000     -70.22620000
H      -44.00550000     -36.92100000     -71.24060000
C      -45.51620000     -35.44060000     -70.64510000
C      -46.69830000     -36.09000000     -71.06350000
C      -45.77180000     -34.34680000     -69.74870000
H      -46.71570000     -36.89130000     -71.73870000
C      -47.10910000     -34.30000000     -69.42000000
C      -44.96160000     -33.34130000     -69.08290000
C      -45.74490000     -32.51240000     -68.33530000
S      -48.06470000     -35.50430000     -70.19170000
S      -47.43790000     -33.04380000     -68.31160000
H      -45.37340000     -31.68410000     -67.71350000
