40
Properties=species:S:1:pos:R:3 #=T CELL(abcABC):=T 1.889726e+02=T 90.00000=T Traj:=T positionsangstrom=T Step:=T 0=T Bead:=T pbc="F F F"
C      -43.80220000     -30.54610000     -73.55560000
C      -44.83720000     -30.98000000     -72.68930000
C      -45.39160000     -32.23700000     -72.97320000
C      -45.14420000     -32.94230000     -74.14570000
C      -44.17450000     -32.40660000     -75.02810000
C      -43.54130000     -31.22040000     -74.76770000
H      -43.33390000     -29.62530000     -73.24630000
H      -46.20180000     -32.59900000     -72.25990000
H      -44.13720000     -32.92700000     -75.97060000
H      -42.97010000     -30.81290000     -75.65970000
C      -45.80630000     -34.35380000     -74.34630000
H      -46.07160000     -34.39470000     -75.45280000
H      -46.81710000     -34.41610000     -73.82310000
C      -45.11750000     -30.38390000     -71.37000000
H      -45.23440000     -29.33700000     -71.45310000
H      -46.06740000     -30.78970000     -70.95960000
S      -44.71100000     -35.75860000     -73.92610000
S      -43.75610000     -30.56570000     -70.10550000
C      -43.74750000     -35.35420000     -72.38520000
H      -42.81060000     -35.89190000     -72.70030000
H      -43.58780000     -34.28030000     -72.31830000
C      -43.23340000     -32.31340000     -70.42170000
H      -42.11500000     -32.32330000     -70.52130000
H      -43.78820000     -32.53320000     -71.33820000
C      -43.56180000     -33.17170000     -69.17800000
H      -43.01370000     -34.12080000     -69.20210000
H      -43.04290000     -32.72950000     -68.31460000
C      -44.26770000     -35.98960000     -71.10460000
H      -43.37580000     -35.84990000     -70.47850000
H      -44.38910000     -37.05800000     -71.36150000
C      -45.58500000     -35.41270000     -70.59100000
C      -46.75510000     -36.04480000     -70.94080000
C      -45.86820000     -34.35280000     -69.69210000
H      -46.72630000     -36.89070000     -71.57540000
C      -47.23090000     -34.18480000     -69.41910000
C      -45.01920000     -33.45320000     -68.92100000
C      -45.81970000     -32.67240000     -68.11680000
S      -48.23460000     -35.34620000     -70.30430000
S      -47.51810000     -32.99910000     -68.17930000
H      -45.63870000     -31.89180000     -67.38010000
