40
Properties=species:S:1:pos:R:3 #=T CELL(abcABC):=T 1.889726e+02=T 90.00000=T Traj:=T positionsangstrom=T Step:=T 0=T Bead:=T pbc="F F F"
C      -43.74050000     -30.56160000     -73.57560000
C      -44.64500000     -31.12420000     -72.64820000
C      -45.30200000     -32.28310000     -72.96260000
C      -45.09090000     -32.95950000     -74.20790000
C      -44.23300000     -32.37470000     -75.09370000
C      -43.56970000     -31.13670000     -74.80960000
H      -43.20950000     -29.64370000     -73.19070000
H      -45.98840000     -32.68680000     -72.20740000
H      -43.86380000     -32.90800000     -75.93330000
H      -42.85780000     -30.62620000     -75.47600000
C      -45.79510000     -34.22440000     -74.57020000
H      -45.95130000     -34.27730000     -75.62070000
H      -46.72510000     -34.26090000     -74.12080000
C      -44.91110000     -30.47900000     -71.32570000
H      -45.07790000     -29.39420000     -71.39270000
H      -45.81240000     -30.93460000     -70.85520000
S      -44.88790000     -35.76140000     -73.99570000
S      -43.45030000     -30.71500000     -70.11620000
C      -43.94010000     -35.35980000     -72.49720000
H      -42.89690000     -35.57890000     -72.49550000
H      -43.96170000     -34.31290000     -72.17280000
C      -43.08620000     -32.41240000     -70.14410000
H      -42.01590000     -32.49700000     -70.27530000
H      -43.52260000     -32.80270000     -71.09620000
C      -43.51460000     -33.30200000     -68.95080000
H      -42.94450000     -34.24110000     -68.96140000
H      -43.23370000     -32.70140000     -68.03290000
C      -44.45470000     -36.04880000     -71.23490000
H      -43.60550000     -35.95430000     -70.43320000
H      -44.65400000     -37.08300000     -71.30080000
C      -45.76890000     -35.41920000     -70.65620000
C      -46.96740000     -35.83980000     -71.11140000
C      -45.91170000     -34.40190000     -69.63920000
H      -47.06390000     -36.63590000     -71.86050000
C      -47.25380000     -34.17570000     -69.34570000
C      -44.98980000     -33.53790000     -68.79780000
C      -45.71690000     -32.65510000     -68.05280000
S      -48.35940000     -35.13290000     -70.31360000
S      -47.54390000     -32.95930000     -68.13360000
H      -45.39060000     -31.85370000     -67.45600000
