40
Properties=species:S:1:pos:R:3 #=T CELL(abcABC):=T 1.889726e+02=T 90.00000=T Traj:=T positionsangstrom=T Step:=T 0=T Bead:=T pbc="F F F"
C      -43.73970000     -30.56950000     -73.54520000
C      -44.53120000     -31.13840000     -72.61490000
C      -45.27280000     -32.31340000     -72.90470000
C      -45.12390000     -32.96260000     -74.12220000
C      -44.19950000     -32.43130000     -75.05190000
C      -43.50470000     -31.22560000     -74.79280000
H      -43.24500000     -29.62670000     -73.42690000
H      -45.78460000     -32.68160000     -72.07050000
H      -44.19760000     -32.87910000     -76.05910000
H      -42.77910000     -30.78840000     -75.40730000
C      -45.96890000     -34.16310000     -74.36200000
H      -46.26230000     -34.20060000     -75.46340000
H      -46.85030000     -34.13500000     -73.64930000
C      -44.61030000     -30.56140000     -71.15230000
H      -44.75550000     -29.46400000     -71.20630000
H      -45.45830000     -31.01260000     -70.64990000
S      -45.09070000     -35.76690000     -74.10210000
S      -43.17270000     -30.82440000     -70.12100000
C      -43.95770000     -35.43690000     -72.55900000
H      -43.04270000     -35.85310000     -72.91800000
H      -43.86620000     -34.30680000     -72.55610000
C      -42.95120000     -32.64690000     -70.10400000
H      -41.90630000     -32.92560000     -70.20130000
H      -43.38030000     -33.06290000     -71.01770000
C      -43.51550000     -33.52030000     -68.92800000
H      -43.11260000     -34.48830000     -69.20410000
H      -43.15560000     -33.21860000     -67.90500000
C      -44.55150000     -35.89820000     -71.23940000
H      -43.81260000     -35.75360000     -70.44250000
H      -44.72780000     -36.94420000     -71.31320000
C      -45.85180000     -35.27810000     -70.78650000
C      -47.05620000     -35.69310000     -71.24250000
C      -45.93320000     -34.31560000     -69.68530000
H      -47.32210000     -36.38720000     -72.02930000
C      -47.27430000     -34.10000000     -69.37940000
C      -45.08490000     -33.51990000     -68.86630000
C      -45.76720000     -32.67940000     -68.05740000
S      -48.47570000     -34.98120000     -70.33630000
S      -47.49340000     -32.89580000     -68.08690000
H      -45.35970000     -31.97550000     -67.33050000
