40
Properties=species:S:1:pos:R:3 #=T CELL(abcABC):=T 1.889726e+02=T 90.00000=T Traj:=T positionsangstrom=T Step:=T 0=T Bead:=T pbc="F F F"
C      -43.52680000     -30.76850000     -73.38010000
C      -44.42640000     -31.20610000     -72.42800000
C      -45.34280000     -32.22730000     -72.72260000
C      -45.33170000     -32.85190000     -73.98850000
C      -44.43110000     -32.35430000     -74.92760000
C      -43.43860000     -31.38490000     -74.60270000
H      -42.83500000     -29.98680000     -73.18910000
H      -46.08810000     -32.45370000     -72.00870000
H      -44.42170000     -32.81220000     -75.91140000
H      -42.80540000     -30.88610000     -75.34320000
C      -46.10120000     -34.07950000     -74.30160000
H      -46.32030000     -34.05630000     -75.32290000
H      -47.03770000     -33.99710000     -73.71400000
C      -44.45490000     -30.51790000     -71.10290000
H      -44.23270000     -29.44010000     -71.11140000
H      -45.33480000     -30.68790000     -70.49550000
S      -45.19620000     -35.69770000     -74.13350000
S      -42.95560000     -31.08220000     -70.04600000
C      -44.04070000     -35.42940000     -72.73360000
H      -43.08780000     -35.98670000     -72.96530000
H      -43.79660000     -34.36580000     -72.73110000
C      -42.93150000     -32.94750000     -70.22620000
H      -41.81860000     -33.20720000     -70.24540000
H      -43.53590000     -33.25390000     -71.06020000
C      -43.52440000     -33.59730000     -68.95500000
H      -43.23930000     -34.67120000     -68.94130000
H      -43.03710000     -33.15090000     -68.11390000
C      -44.56530000     -35.89590000     -71.32700000
H      -43.82740000     -35.80680000     -70.53140000
H      -44.75190000     -37.01900000     -71.36420000
C      -45.86190000     -35.22850000     -70.89820000
C      -47.11860000     -35.69850000     -71.19340000
C      -45.94180000     -34.15560000     -69.84840000
H      -47.44100000     -36.51540000     -71.86040000
C      -47.33850000     -33.86730000     -69.54950000
C      -45.05560000     -33.42480000     -68.93120000
C      -45.74020000     -32.74230000     -67.95410000
S      -48.46500000     -34.87230000     -70.42290000
S      -47.51620000     -32.82270000     -68.18860000
H      -45.26650000     -32.10520000     -67.19110000
