40
Properties=species:S:1:pos:R:3 #=T CELL(abcABC):=T 1.889726e+02=T 90.00000=T Traj:=T positionsangstrom=T Step:=T 0=T Bead:=T pbc="F F F"
C      -43.40380000     -30.84960000     -73.36830000
C      -44.36260000     -31.22530000     -72.36460000
C      -45.33480000     -32.13280000     -72.62500000
C      -45.43890000     -32.71880000     -73.92020000
C      -44.44980000     -32.42530000     -74.82740000
C      -43.45850000     -31.43070000     -74.60820000
H      -42.62220000     -30.10460000     -73.18000000
H      -46.05880000     -32.40620000     -71.85840000
H      -44.36250000     -32.96200000     -75.74020000
H      -42.70980000     -31.26490000     -75.40670000
C      -46.44390000     -33.79460000     -74.09930000
H      -47.00520000     -33.84710000     -75.00400000
H      -47.16970000     -33.86040000     -73.29160000
C      -44.32400000     -30.66170000     -70.95890000
H      -44.29090000     -29.58440000     -70.91170000
H      -45.23240000     -31.02030000     -70.42510000
S      -45.48640000     -35.51030000     -74.16700000
S      -42.74210000     -31.21440000     -70.02350000
C      -44.26080000     -35.31690000     -72.85100000
H      -43.26550000     -35.79180000     -73.13650000
H      -44.02580000     -34.32270000     -72.77530000
C      -42.79320000     -33.07010000     -70.08000000
H      -41.77400000     -33.32220000     -70.15240000
H      -43.08370000     -33.39180000     -71.05970000
C      -43.47790000     -33.74670000     -68.89630000
H      -43.33330000     -34.85280000     -68.80950000
H      -43.05610000     -33.32350000     -67.97770000
C      -44.65290000     -35.94880000     -71.43320000
H      -43.77470000     -35.80550000     -70.83000000
H      -44.75940000     -37.05820000     -71.56790000
C      -45.87450000     -35.33160000     -70.86240000
C      -47.09120000     -35.58270000     -71.41440000
C      -45.96530000     -34.39260000     -69.73950000
H      -47.34840000     -36.27990000     -72.16810000
C      -47.33320000     -34.04300000     -69.42320000
C      -45.01420000     -33.65930000     -68.90530000
C      -45.62890000     -32.75620000     -68.02640000
S      -48.46440000     -34.74020000     -70.62180000
S      -47.38460000     -32.71910000     -68.24230000
H      -45.14360000     -32.00910000     -67.36900000
