40
Properties=species:S:1:pos:R:3 #=T CELL(abcABC):=T 1.889726e+02=T 90.00000=T Traj:=T positionsangstrom=T Step:=T 0=T Bead:=T pbc="F F F"
C      -45.00620000     -37.19500000     -71.16850000
C      -44.65580000     -36.35370000     -70.07330000
C      -43.35430000     -35.70040000     -70.15280000
C      -42.52500000     -35.89200000     -71.25470000
C      -42.97670000     -36.70610000     -72.35530000
C      -44.14720000     -37.43810000     -72.19210000
H      -46.05130000     -37.73990000     -71.07530000
H      -42.86640000     -35.38550000     -69.28110000
H      -42.21620000     -36.92010000     -73.11930000
H      -44.47640000     -38.11490000     -72.94170000
C      -41.19640000     -35.10860000     -71.41760000
H      -40.64110000     -35.48840000     -72.25060000
H      -40.56500000     -35.28250000     -70.50320000
C      -45.67460000     -36.39310000     -68.93900000
H      -45.70640000     -37.41360000     -68.68850000
H      -45.37150000     -35.60930000     -68.20250000
S      -41.54450000     -33.37100000     -71.97820000
S      -47.42300000     -35.89960000     -69.25520000
C      -43.00170000     -32.84860000     -70.95100000
H      -42.97510000     -33.38670000     -70.00400000
H      -43.00920000     -31.77230000     -70.73640000
C      -47.17620000     -34.11150000     -69.74010000
H      -46.13910000     -33.93570000     -69.38120000
H      -47.85370000     -33.52580000     -69.10780000
C      -47.53990000     -33.76090000     -71.18550000
H      -46.84340000     -34.24180000     -71.92610000
H      -48.48630000     -34.26250000     -71.34100000
C      -44.31470000     -33.04250000     -71.72720000
H      -44.93740000     -33.80000000     -71.15300000
H      -44.12210000     -33.57890000     -72.68650000
C      -45.11790000     -31.78620000     -72.05820000
C      -44.51130000     -30.62020000     -72.43340000
C      -46.53360000     -31.51520000     -71.89750000
H      -43.41060000     -30.57470000     -72.58020000
C      -46.97200000     -30.24060000     -72.25090000
C      -47.62060000     -32.29810000     -71.49430000
C      -48.80300000     -31.60670000     -71.44970000
S      -45.59070000     -29.19280000     -72.50380000
S      -48.63540000     -29.96760000     -71.92900000
H      -49.79290000     -31.95910000     -71.06980000
