40
Properties=species:S:1:pos:R:3 #=T CELL(abcABC):=T 1.889726e+02=T 90.00000=T Traj:=T positionsangstrom=T Step:=T 0=T Bead:=T pbc="F F F"
C      -43.08250000     -30.76050000     -73.20100000
C      -43.91100000     -31.03000000     -72.09920000
C      -45.04650000     -31.87770000     -72.24480000
C      -45.37240000     -32.28900000     -73.52370000
C      -44.57610000     -31.88200000     -74.65920000
C      -43.48480000     -31.05940000     -74.52040000
H      -42.06860000     -30.31010000     -73.08630000
H      -45.66440000     -32.27790000     -71.45600000
H      -44.83090000     -32.27570000     -75.65990000
H      -42.77840000     -30.78640000     -75.31190000
C      -46.60980000     -33.17180000     -73.58390000
H      -47.38510000     -32.99710000     -74.34890000
H      -47.11230000     -33.20670000     -72.57500000
C      -43.41040000     -30.65880000     -70.66970000
H      -42.98310000     -29.63210000     -70.78250000
H      -44.29660000     -30.55580000     -70.02410000
S      -46.14120000     -35.02790000     -74.01820000
S      -42.07640000     -31.85320000     -70.08890000
C      -44.78710000     -35.49550000     -72.89390000
H      -43.98340000     -35.94720000     -73.36060000
H      -44.33790000     -34.57650000     -72.37530000
C      -42.64330000     -33.57920000     -70.62730000
H      -41.68850000     -34.05450000     -70.97460000
H      -43.25650000     -33.40180000     -71.54760000
C      -43.46050000     -34.39920000     -69.59280000
H      -43.35850000     -35.52640000     -69.87050000
H      -43.03910000     -34.08120000     -68.60080000
C      -45.35900000     -36.39200000     -71.81540000
H      -44.49120000     -36.60500000     -71.20890000
H      -45.78760000     -37.31370000     -72.09240000
C      -46.38070000     -35.55390000     -70.97350000
C      -47.73980000     -35.80900000     -70.99430000
C      -46.12210000     -34.43660000     -70.09570000
H      -48.11980000     -36.55030000     -71.63920000
C      -47.30720000     -33.79290000     -69.68310000
C      -44.97110000     -33.96700000     -69.37980000
C      -45.25920000     -33.02640000     -68.42230000
S      -48.76350000     -34.56390000     -70.26680000
S      -46.99520000     -32.66400000     -68.42770000
H      -44.49210000     -32.37390000     -67.92640000
