40
Properties=species:S:1:pos:R:3 #=T CELL(abcABC):=T 1.889726e+02=T 90.00000=T Traj:=T positionsangstrom=T Step:=T 0=T Bead:=T pbc="F F F"
C      -43.13050000     -30.72590000     -73.24920000
C      -43.84950000     -31.07290000     -72.05820000
C      -45.00520000     -31.79660000     -72.14020000
C      -45.48220000     -32.24610000     -73.39260000
C      -44.78000000     -32.01890000     -74.53000000
C      -43.60240000     -31.24220000     -74.46370000
H      -42.26250000     -30.10300000     -73.31880000
H      -45.62640000     -31.97210000     -71.24300000
H      -45.08250000     -32.52420000     -75.44590000
H      -43.21070000     -30.89470000     -75.40040000
C      -46.67010000     -33.14410000     -73.43330000
H      -47.44630000     -32.73110000     -74.13180000
H      -47.10390000     -33.13370000     -72.40970000
C      -43.22560000     -30.66100000     -70.75760000
H      -42.64810000     -29.77360000     -70.74060000
H      -44.03700000     -30.49950000     -70.03640000
S      -46.26220000     -34.84750000     -74.09920000
S      -41.95350000     -31.95320000     -70.17550000
C      -44.94630000     -35.44490000     -72.84080000
H      -44.18810000     -35.98790000     -73.37910000
H      -44.50440000     -34.58650000     -72.29010000
C      -42.62530000     -33.56260000     -70.86960000
H      -41.72810000     -34.15690000     -71.11600000
H      -43.12460000     -33.41480000     -71.78400000
C      -43.45490000     -34.39840000     -69.96990000
H      -43.44450000     -35.37150000     -70.49320000
H      -42.85840000     -34.65490000     -69.15690000
C      -45.53510000     -36.37560000     -71.78780000
H      -44.68790000     -36.86150000     -71.26550000
H      -46.03220000     -37.20490000     -72.39870000
C      -46.48710000     -35.59210000     -70.93370000
C      -47.84690000     -35.57030000     -71.19030000
C      -46.09060000     -34.58770000     -69.99480000
H      -48.35110000     -36.29980000     -71.89750000
C      -47.21770000     -34.00850000     -69.41300000
C      -44.84590000     -33.98910000     -69.48870000
C      -45.11850000     -32.92270000     -68.65930000
S      -48.74770000     -34.46460000     -70.12760000
S      -46.83260000     -32.77840000     -68.26670000
H      -44.42160000     -32.25020000     -68.25600000
