40
Properties=species:S:1:pos:R:3 #=T CELL(abcABC):=T 1.889726e+02=T 90.00000=T Traj:=T positionsangstrom=T Step:=T 0=T Bead:=T pbc="F F F"
C      -43.10340000     -30.82160000     -73.35650000
C      -43.73490000     -31.05210000     -72.11220000
C      -45.00330000     -31.68500000     -72.15570000
C      -45.48800000     -32.25750000     -73.33430000
C      -44.89410000     -31.94960000     -74.58080000
C      -43.62700000     -31.32240000     -74.55600000
H      -42.20280000     -30.27620000     -73.29190000
H      -45.61000000     -31.89320000     -71.25450000
H      -45.31390000     -32.34350000     -75.53250000
H      -43.05350000     -31.09340000     -75.45150000
C      -46.75390000     -33.16780000     -73.39870000
H      -47.51740000     -32.65690000     -73.90500000
H      -47.14460000     -33.31280000     -72.47110000
C      -43.16270000     -30.72830000     -70.74740000
H      -42.49850000     -29.84770000     -70.69480000
H      -43.93450000     -30.53600000     -69.93750000
S      -46.35910000     -34.73350000     -74.30590000
S      -42.06040000     -32.05830000     -70.19940000
C      -45.16920000     -35.65180000     -73.20890000
H      -44.78810000     -36.39920000     -73.95730000
H      -44.35690000     -34.99210000     -73.08150000
C      -42.60040000     -33.66750000     -70.86600000
H      -41.68880000     -34.19270000     -71.09780000
H      -43.25650000     -33.58600000     -71.79210000
C      -43.38940000     -34.54950000     -69.88170000
H      -43.52060000     -35.47170000     -70.41660000
H      -42.76980000     -34.76440000     -68.99850000
C      -45.72710000     -36.32950000     -71.95780000
H      -44.97340000     -36.80500000     -71.36360000
H      -46.37200000     -37.16700000     -72.28340000
C      -46.55630000     -35.41680000     -70.98460000
C      -47.97770000     -35.46080000     -71.04110000
C      -46.06320000     -34.50350000     -69.99840000
H      -48.58990000     -36.24810000     -71.56900000
C      -47.14520000     -33.86220000     -69.36060000
C      -44.74200000     -34.06210000     -69.47650000
C      -44.92190000     -33.03940000     -68.52620000
S      -48.70200000     -34.44590000     -69.80540000
S      -46.58590000     -32.68510000     -68.21330000
H      -44.25080000     -32.68170000     -67.85640000
