40
Properties=species:S:1:pos:R:3 #=T CELL(abcABC):=T 1.889726e+02=T 90.00000=T Traj:=T positionsangstrom=T Step:=T 0=T Bead:=T pbc="F F F"
C      -43.09410000     -30.93950000     -73.27190000
C      -43.78780000     -31.48790000     -72.15940000
C      -45.00650000     -32.11330000     -72.37770000
C      -45.51420000     -32.19700000     -73.73580000
C      -44.71800000     -31.79360000     -74.80360000
C      -43.55130000     -31.10660000     -74.55850000
H      -42.19110000     -30.35190000     -73.00110000
H      -45.58630000     -32.44560000     -71.53330000
H      -45.02840000     -31.96520000     -75.79040000
H      -42.93980000     -30.71690000     -75.40940000
C      -46.86880000     -32.85800000     -73.98730000
H      -47.28300000     -32.48540000     -74.87560000
H      -47.54060000     -32.59470000     -73.25150000
C      -43.34060000     -31.18700000     -70.71960000
H      -42.93930000     -30.12390000     -70.65800000
H      -44.16030000     -31.19890000     -70.01430000
S      -46.87070000     -34.70860000     -74.13130000
S      -41.86140000     -32.38240000     -70.24360000
C      -45.43640000     -35.38020000     -73.07310000
H      -44.76810000     -35.95730000     -73.68930000
H      -44.83330000     -34.49110000     -72.75090000
C      -42.36850000     -34.02350000     -70.86950000
H      -41.48050000     -34.69090000     -70.84130000
H      -42.72310000     -33.73280000     -71.81930000
C      -43.47430000     -34.85250000     -70.05740000
H      -43.79070000     -35.62880000     -70.67100000
H      -42.98640000     -35.43040000     -69.35460000
C      -46.00050000     -36.14610000     -71.90340000
H      -45.15700000     -36.59070000     -71.35120000
H      -46.61850000     -36.99590000     -72.24550000
C      -46.76340000     -35.25200000     -70.96140000
C      -48.14810000     -35.11580000     -70.91040000
C      -46.09720000     -34.47450000     -69.94450000
H      -48.95330000     -35.45280000     -71.53300000
C      -46.94450000     -33.83910000     -69.09500000
C      -44.71020000     -34.10400000     -69.63580000
C      -44.64610000     -33.17340000     -68.63640000
S      -48.61460000     -34.04170000     -69.57060000
S      -46.17840000     -32.61920000     -68.07940000
H      -43.76630000     -32.69670000     -68.25500000
