40
Properties=species:S:1:pos:R:3 #=T CELL(abcABC):=T 1.889726e+02=T 90.00000=T Traj:=T positionsangstrom=T Step:=T 0=T Bead:=T pbc="F F F"
C      -42.91010000     -30.99550000     -73.32540000
C      -43.68960000     -31.49820000     -72.24390000
C      -44.93870000     -32.03860000     -72.44830000
C      -45.47060000     -32.17250000     -73.77900000
C      -44.70040000     -31.63810000     -74.82760000
C      -43.46330000     -31.03610000     -74.64470000
H      -42.01600000     -30.45720000     -73.10780000
H      -45.63870000     -32.34920000     -71.58400000
H      -45.14620000     -31.44690000     -75.83290000
H      -42.91790000     -30.56100000     -75.44230000
C      -46.85980000     -32.63550000     -74.02200000
H      -47.19870000     -32.26070000     -75.00470000
H      -47.58440000     -32.16970000     -73.24840000
C      -43.38560000     -31.38170000     -70.80900000
H      -43.07440000     -30.35270000     -70.59750000
H      -44.28300000     -31.56740000     -70.22310000
S      -47.06230000     -34.63140000     -74.08760000
S      -41.93040000     -32.43460000     -70.32260000
C      -45.63470000     -35.50610000     -73.05770000
H      -45.13620000     -36.15240000     -73.79690000
H      -44.95770000     -34.71440000     -72.68130000
C      -42.50210000     -34.09970000     -70.93040000
H      -41.57110000     -34.68250000     -71.03030000
H      -42.86730000     -34.02570000     -71.99290000
C      -43.43600000     -34.92950000     -70.08110000
H      -43.65520000     -35.83020000     -70.77670000
H      -42.81860000     -35.37100000     -69.19960000
C      -46.20930000     -36.25880000     -71.90860000
H      -45.47930000     -36.86960000     -71.44610000
H      -47.01050000     -36.92580000     -72.27360000
C      -46.78940000     -35.31100000     -70.89570000
C      -48.17820000     -35.18070000     -70.71480000
C      -46.01130000     -34.39020000     -69.97930000
H      -48.99700000     -35.64150000     -71.20960000
C      -46.84310000     -33.53740000     -69.28540000
C      -44.60260000     -34.28570000     -69.48760000
C      -44.57050000     -33.56500000     -68.33490000
S      -48.50540000     -33.76670000     -69.68030000
S      -46.08930000     -32.72490000     -67.90220000
H      -43.69170000     -33.39050000     -67.73070000
