40
Properties=species:S:1:pos:R:3 #=T CELL(abcABC):=T 1.889726e+02=T 90.00000=T Traj:=T positionsangstrom=T Step:=T 0=T Bead:=T pbc="F F F"
C      -42.89350000     -31.10990000     -73.48490000
C      -43.66250000     -31.49110000     -72.39340000
C      -45.01710000     -31.97510000     -72.62770000
C      -45.55170000     -32.08950000     -73.87330000
C      -44.73070000     -31.77140000     -74.98070000
C      -43.42250000     -31.28820000     -74.73940000
H      -41.85900000     -30.86650000     -73.26570000
H      -45.80220000     -32.16420000     -71.86610000
H      -45.00810000     -31.89850000     -75.99660000
H      -42.71920000     -31.14230000     -75.53910000
C      -46.97010000     -32.72550000     -74.02830000
H      -47.46740000     -32.26860000     -74.77140000
H      -47.43870000     -32.37360000     -73.18030000
C      -43.13350000     -31.32510000     -71.03570000
H      -42.49870000     -30.43560000     -71.02010000
H      -43.90970000     -31.13190000     -70.26250000
S      -47.03560000     -34.45700000     -74.36740000
S      -42.04880000     -32.81370000     -70.53710000
C      -45.71760000     -35.11590000     -73.37500000
H      -45.12940000     -35.90010000     -73.86860000
H      -45.03230000     -34.27970000     -73.15450000
C      -42.92420000     -34.37700000     -71.04970000
H      -42.09200000     -34.98200000     -71.50010000
H      -43.80930000     -34.16160000     -71.69310000
C      -43.46100000     -35.12540000     -69.76830000
H      -43.60830000     -36.18420000     -69.99650000
H      -42.69500000     -35.22270000     -68.95830000
C      -46.21240000     -35.77310000     -72.04790000
H      -45.35620000     -36.41320000     -71.70640000
H      -46.96100000     -36.48390000     -72.27090000
C      -46.65990000     -34.88890000     -70.88260000
C      -47.99940000     -34.51520000     -70.88970000
C      -45.90900000     -34.37350000     -69.75230000
H      -48.65950000     -34.80330000     -71.66670000
C      -46.79580000     -33.58790000     -68.93190000
C      -44.64000000     -34.51940000     -69.15410000
C      -44.50260000     -33.73770000     -68.02150000
S      -48.48510000     -33.58700000     -69.45050000
S      -46.02810000     -32.96870000     -67.50740000
H      -43.57370000     -33.49370000     -67.49760000
