40
Properties=species:S:1:pos:R:3 #=T CELL(abcABC):=T 1.889726e+02=T 90.00000=T Traj:=T positionsangstrom=T Step:=T 0=T Bead:=T pbc="F F F"
C      -42.94340000     -31.42560000     -73.48950000
C      -43.78210000     -31.56860000     -72.36840000
C      -45.15990000     -31.83370000     -72.56200000
C      -45.73900000     -31.99440000     -73.88040000
C      -44.89420000     -31.72980000     -74.95000000
C      -43.51130000     -31.53800000     -74.77460000
H      -41.87250000     -31.10700000     -73.44960000
H      -45.69170000     -32.14450000     -71.68930000
H      -45.32820000     -31.68780000     -75.88880000
H      -42.93550000     -31.44690000     -75.71270000
C      -47.13630000     -32.46990000     -73.99570000
H      -47.67310000     -32.07520000     -74.95550000
H      -47.87770000     -32.43650000     -73.12630000
C      -43.09380000     -31.57280000     -70.99460000
H      -42.54140000     -30.65260000     -70.81750000
H      -43.92470000     -31.67370000     -70.33780000
S      -47.00700000     -34.31810000     -74.39640000
S      -41.77750000     -32.79790000     -70.70980000
C      -45.75710000     -35.12670000     -73.26240000
H      -45.42570000     -35.91970000     -73.92180000
H      -44.89100000     -34.42360000     -73.18290000
C      -42.81550000     -34.33980000     -71.15080000
H      -42.30260000     -35.06680000     -71.74810000
H      -43.51300000     -34.06060000     -71.86670000
C      -43.48230000     -35.21320000     -69.97160000
H      -43.78840000     -36.14790000     -70.47110000
H      -42.82260000     -35.50580000     -69.10330000
C      -46.21700000     -35.74560000     -71.93810000
H      -45.42090000     -36.32770000     -71.61910000
H      -47.06680000     -36.46780000     -72.22040000
C      -46.71550000     -34.79900000     -70.83900000
C      -48.02170000     -34.41530000     -70.79960000
C      -45.98160000     -34.33510000     -69.68740000
H      -48.73150000     -34.83450000     -71.52770000
C      -46.76380000     -33.47160000     -68.90090000
C      -44.64790000     -34.51650000     -69.22560000
C      -44.51220000     -33.94580000     -67.96850000
S      -48.36320000     -33.32170000     -69.43110000
S      -46.02740000     -33.24020000     -67.40750000
H      -43.68510000     -33.95460000     -67.25690000
