40
Properties=species:S:1:pos:R:3 #=T CELL(abcABC):=T 1.889726e+02=T 90.00000=T Traj:=T positionsangstrom=T Step:=T 0=T Bead:=T pbc="F F F"
C      -43.03190000     -31.47450000     -73.49140000
C      -43.81960000     -31.71290000     -72.35070000
C      -45.20470000     -31.98600000     -72.43380000
C      -45.81150000     -32.05380000     -73.71950000
C      -44.96120000     -31.88670000     -74.85140000
C      -43.64760000     -31.46340000     -74.73090000
H      -42.00840000     -31.13980000     -73.44030000
H      -45.73900000     -31.92840000     -71.45470000
H      -45.33840000     -32.04100000     -75.92680000
H      -43.10530000     -31.13700000     -75.65070000
C      -47.26870000     -32.43800000     -73.85110000
H      -47.66390000     -31.78880000     -74.61750000
H      -47.83430000     -32.16720000     -72.93340000
C      -43.20130000     -31.71790000     -71.02060000
H      -42.63200000     -30.82600000     -70.85680000
H      -43.87840000     -31.65370000     -70.15670000
S      -47.48940000     -34.18940000     -74.39330000
S      -41.94340000     -33.08010000     -70.78240000
C      -46.05040000     -35.04010000     -73.49320000
H      -45.97470000     -35.87880000     -74.19640000
H      -45.28680000     -34.35950000     -73.70190000
C      -42.88600000     -34.58060000     -71.19780000
H      -42.30560000     -35.18370000     -71.85010000
H      -43.69000000     -34.21890000     -71.80450000
C      -43.40800000     -35.25580000     -70.02730000
H      -43.95140000     -36.18720000     -70.27450000
H      -42.66150000     -35.63580000     -69.37620000
C      -46.19890000     -35.60730000     -71.99720000
H      -45.24500000     -36.24140000     -71.82950000
H      -46.98270000     -36.31870000     -72.02320000
C      -46.52440000     -34.64380000     -70.88650000
C      -47.85330000     -34.29560000     -70.81290000
C      -45.76530000     -34.18430000     -69.74850000
H      -48.54360000     -34.33750000     -71.67830000
C      -46.52200000     -33.42770000     -68.82830000
C      -44.46950000     -34.54850000     -69.19640000
C      -44.31120000     -34.10190000     -67.94630000
S      -48.14470000     -33.21990000     -69.40810000
S      -45.66510000     -33.07020000     -67.41460000
H      -43.34970000     -34.15180000     -67.50980000
