40
Properties=species:S:1:pos:R:3 #=T CELL(abcABC):=T 1.889726e+02=T 90.00000=T Traj:=T positionsangstrom=T Step:=T 0=T Bead:=T pbc="F F F"
C      -41.86260000     -34.23440000     -69.28760000
C      -42.13490000     -33.25290000     -70.19920000
C      -42.43910000     -33.57220000     -71.54110000
C      -42.59630000     -34.92840000     -71.87270000
C      -42.51040000     -35.91910000     -70.93160000
C      -42.21510000     -35.56630000     -69.58880000
H      -41.67900000     -33.86270000     -68.25770000
H      -42.44780000     -32.76250000     -72.22510000
H      -42.66870000     -36.93380000     -71.20990000
H      -42.00610000     -36.43880000     -68.92940000
C      -42.86640000     -35.37010000     -73.29440000
H      -42.39860000     -36.29050000     -73.47750000
H      -42.34130000     -34.69320000     -73.94180000
C      -41.81380000     -31.82030000     -69.78460000
H      -40.86860000     -31.76210000     -69.16820000
H      -41.61550000     -31.12780000     -70.66520000
S      -44.62590000     -35.35790000     -73.85890000
S      -43.06230000     -31.16000000     -68.55520000
C      -45.55310000     -36.23490000     -72.46700000
H      -46.28750000     -36.87660000     -72.90260000
H      -44.89980000     -36.95470000     -71.95000000
C      -44.56530000     -31.05840000     -69.65830000
H      -44.31630000     -30.64780000     -70.60760000
H      -45.21190000     -30.27380000     -69.18090000
C      -45.42760000     -32.37640000     -69.76110000
H      -44.63130000     -33.17080000     -70.11500000
H      -45.71310000     -32.75970000     -68.72030000
C      -46.15900000     -35.32490000     -71.42110000
H      -45.38490000     -34.67800000     -70.95350000
H      -46.56950000     -35.90580000     -70.52690000
C      -47.22000000     -34.40460000     -71.90350000
C      -48.21360000     -34.77460000     -72.79410000
C      -47.34560000     -33.02600000     -71.55040000
H      -48.34550000     -35.79510000     -73.10540000
C      -48.43790000     -32.43540000     -72.08070000
C      -46.63190000     -32.15810000     -70.59870000
C      -47.28060000     -30.93890000     -70.50840000
S      -49.32400000     -33.47850000     -73.08620000
S      -48.72540000     -30.76990000     -71.47850000
H      -46.90410000     -29.99240000     -70.03520000
