40
Properties=species:S:1:pos:R:3 #=T CELL(abcABC):=T 1.889726e+02=T 90.00000=T Traj:=T positionsangstrom=T Step:=T 0=T Bead:=T pbc="F F F"
C      -43.16420000     -31.38120000     -73.31240000
C      -43.86180000     -31.78520000     -72.18690000
C      -45.23840000     -31.99210000     -72.33350000
C      -45.83450000     -31.89790000     -73.57070000
C      -45.05110000     -31.52780000     -74.70690000
C      -43.74130000     -31.19710000     -74.53150000
H      -42.06170000     -31.17700000     -73.18380000
H      -45.75180000     -32.24420000     -71.39590000
H      -45.54270000     -31.41550000     -75.65160000
H      -43.20640000     -30.77430000     -75.39320000
C      -47.30860000     -32.20990000     -73.75360000
H      -47.74500000     -31.77400000     -74.64910000
H      -47.94500000     -31.87840000     -72.83230000
C      -43.21460000     -31.82890000     -70.83300000
H      -42.62100000     -30.92190000     -70.77110000
H      -43.86810000     -31.98570000     -69.96400000
S      -47.62810000     -33.96360000     -74.00240000
S      -41.90690000     -33.21050000     -70.68540000
C      -46.33970000     -35.09390000     -73.44470000
H      -46.19140000     -35.75260000     -74.32960000
H      -45.49980000     -34.41710000     -73.34500000
C      -42.65350000     -34.72500000     -71.46020000
H      -41.86270000     -35.38000000     -71.87360000
H      -43.38950000     -34.39250000     -72.19060000
C      -43.37480000     -35.51410000     -70.36270000
H      -43.80910000     -36.43130000     -70.85600000
H      -42.61990000     -35.93780000     -69.72960000
C      -46.61140000     -35.80470000     -72.03930000
H      -45.65630000     -36.39260000     -71.83960000
H      -47.43240000     -36.51520000     -72.12070000
C      -46.80240000     -34.88250000     -70.86480000
C      -48.06140000     -34.33480000     -70.60970000
C      -45.75360000     -34.44840000     -69.96780000
H      -49.02160000     -34.50840000     -71.15140000
C      -46.33950000     -33.51730000     -69.08400000
C      -44.41080000     -34.77410000     -69.56110000
C      -44.07660000     -34.09650000     -68.33950000
S      -48.01120000     -33.10050000     -69.35820000
S      -45.32430000     -33.03790000     -67.81090000
H      -43.04600000     -34.09970000     -67.99190000
