40
Properties=species:S:1:pos:R:3 #=T CELL(abcABC):=T 1.889726e+02=T 90.00000=T Traj:=T positionsangstrom=T Step:=T 0=T Bead:=T pbc="F F F"
C      -43.04780000     -31.33300000     -73.38210000
C      -43.67160000     -31.59890000     -72.15910000
C      -45.03460000     -31.89970000     -72.16810000
C      -45.78130000     -32.02900000     -73.37730000
C      -45.12950000     -31.57590000     -74.51670000
C      -43.77930000     -31.17890000     -74.51910000
H      -41.97540000     -31.18670000     -73.47680000
H      -45.58260000     -32.01980000     -71.19650000
H      -45.70280000     -31.45740000     -75.47030000
H      -43.29880000     -30.79920000     -75.45360000
C      -47.22520000     -32.38790000     -73.30780000
H      -47.80630000     -31.57190000     -73.73960000
H      -47.50120000     -32.40250000     -72.30070000
C      -42.95160000     -31.67900000     -70.86580000
H      -42.38500000     -30.78710000     -70.53210000
H      -43.68340000     -31.80130000     -70.04240000
S      -47.69460000     -33.94080000     -74.22840000
S      -41.81810000     -33.14730000     -70.74280000
C      -46.44230000     -35.02800000     -73.51090000
H      -46.25100000     -35.90260000     -74.18580000
H      -45.45650000     -34.55780000     -73.47340000
C      -42.81140000     -34.54020000     -71.45840000
H      -42.08770000     -35.10450000     -72.03240000
H      -43.53110000     -34.18540000     -72.25350000
C      -43.53700000     -35.54310000     -70.51960000
H      -44.11740000     -36.28060000     -71.17070000
H      -42.76890000     -36.00010000     -69.88010000
C      -46.77870000     -35.71330000     -72.19560000
H      -46.13700000     -36.56720000     -72.12460000
H      -47.75710000     -36.15360000     -72.24840000
C      -46.81820000     -34.82390000     -70.92210000
C      -48.10960000     -34.32160000     -70.70580000
C      -45.86320000     -34.53630000     -69.91530000
H      -49.03660000     -34.38620000     -71.31040000
C      -46.44400000     -33.72290000     -68.92230000
C      -44.44720000     -34.75370000     -69.62210000
C      -43.97210000     -34.08410000     -68.46510000
S      -48.11680000     -33.29630000     -69.23490000
S      -45.21510000     -33.04900000     -67.81270000
H      -42.94020000     -34.11200000     -68.34250000
