40
Properties=species:S:1:pos:R:3 #=T CELL(abcABC):=T 1.889726e+02=T 90.00000=T Traj:=T positionsangstrom=T Step:=T 0=T Bead:=T pbc="F F F"
C      -42.55010000     -36.75470000     -70.65170000
C      -43.10890000     -35.99290000     -71.68620000
C      -42.79190000     -34.60950000     -71.85090000
C      -42.05470000     -34.02810000     -70.83810000
C      -41.53900000     -34.75030000     -69.76070000
C      -41.83860000     -36.07120000     -69.63870000
H      -42.64720000     -37.85620000     -70.60520000
H      -43.03620000     -34.02240000     -72.80940000
H      -41.05610000     -34.17310000     -68.96400000
H      -41.51900000     -36.60480000     -68.82130000
C      -41.69650000     -32.56330000     -70.98450000
H      -41.95740000     -32.18870000     -71.97510000
H      -40.62340000     -32.57940000     -70.91340000
C      -43.84990000     -36.78960000     -72.71040000
H      -43.04110000     -37.51650000     -72.98370000
H      -44.57720000     -37.56130000     -72.31230000
S      -42.29260000     -31.50460000     -69.57640000
S      -44.51730000     -35.91730000     -74.11880000
C      -44.01110000     -31.98030000     -69.61190000
H      -44.00000000     -33.08240000     -69.72700000
H      -44.49190000     -31.64790000     -68.68700000
C      -46.21050000     -35.38910000     -73.60110000
H      -46.71040000     -36.22110000     -73.07540000
H      -46.72540000     -35.20230000     -74.59570000
C      -46.17020000     -34.08240000     -72.74660000
H      -45.50890000     -34.31170000     -71.87360000
H      -45.61250000     -33.22350000     -73.19990000
C      -44.84340000     -31.36980000     -70.75100000
H      -44.53620000     -31.89320000     -71.67670000
H      -44.59490000     -30.26800000     -70.89500000
C      -46.32580000     -31.39940000     -70.66960000
C      -46.97260000     -30.28980000     -70.11920000
C      -47.35240000     -32.27820000     -71.28970000
H      -46.51160000     -29.31140000     -69.83430000
C      -48.64530000     -31.78280000     -71.09300000
C      -47.36980000     -33.48830000     -72.14830000
C      -48.66770000     -33.95890000     -72.18360000
S      -48.72280000     -30.37030000     -70.16960000
S      -49.87990000     -32.85720000     -71.64740000
H      -48.84010000     -34.80320000     -72.83720000
