40
Properties=species:S:1:pos:R:3 #=T CELL(abcABC):=T 1.889726e+02=T 90.00000=T Traj:=T positionsangstrom=T Step:=T 0=T Bead:=T pbc="F F F"
C      -43.14970000     -31.97980000     -70.77190000
C      -43.98480000     -31.41600000     -71.70100000
C      -45.25560000     -30.99250000     -71.35580000
C      -45.72420000     -31.06710000     -70.02790000
C      -44.83510000     -31.55640000     -69.02270000
C      -43.61060000     -32.02010000     -69.41900000
H      -42.16490000     -32.26620000     -70.93810000
H      -45.99040000     -30.81440000     -72.13490000
H      -45.12300000     -31.61260000     -68.00400000
H      -42.93250000     -32.46540000     -68.67720000
C      -47.08960000     -30.60910000     -69.61820000
H      -47.54740000     -29.89360000     -70.27420000
H      -47.07070000     -30.30140000     -68.64090000
C      -43.53420000     -31.31140000     -73.10530000
H      -43.16020000     -30.36460000     -73.42910000
H      -42.77100000     -32.08550000     -73.28400000
S      -48.13670000     -32.11690000     -69.52750000
S      -44.79410000     -31.43790000     -74.48590000
C      -48.13780000     -32.85510000     -71.29300000
H      -49.09890000     -32.46790000     -71.79220000
H      -47.36350000     -32.27960000     -71.82310000
C      -44.77200000     -33.18350000     -75.00230000
H      -43.80040000     -33.62320000     -75.12190000
H      -45.24410000     -33.19670000     -76.01010000
C      -45.52890000     -34.24040000     -74.09020000
H      -46.57100000     -33.92760000     -73.85000000
H      -45.58810000     -35.06280000     -74.71220000
C      -48.07690000     -34.36570000     -71.39630000
H      -48.21760000     -34.66970000     -72.48240000
H      -48.80930000     -34.88040000     -70.80660000
C      -46.73450000     -34.87530000     -70.82810000
C      -46.67560000     -35.25370000     -69.46670000
C      -45.43470000     -35.07220000     -71.42120000
H      -47.53580000     -35.44020000     -68.80170000
C      -44.54330000     -35.74980000     -70.62650000
C      -44.81570000     -34.69740000     -72.75400000
C      -43.47350000     -35.10150000     -72.76320000
S      -45.19990000     -36.07630000     -69.04830000
S      -42.95630000     -35.92120000     -71.30870000
H      -42.85940000     -34.97630000     -73.58670000
