40
Properties=species:S:1:pos:R:3 #=T CELL(abcABC):=T 1.889726e+02=T 90.00000=T Traj:=T positionsangstrom=T Step:=T 0=T Bead:=T pbc="F F F"
C      -43.10370000     -32.30160000     -71.06080000
C      -44.00600000     -31.56230000     -71.85070000
C      -45.19380000     -31.12250000     -71.31550000
C      -45.54400000     -31.27720000     -69.98660000
C      -44.63180000     -31.97100000     -69.21730000
C      -43.42620000     -32.51380000     -69.71760000
H      -42.14180000     -32.56050000     -71.47990000
H      -45.89930000     -30.56230000     -71.89860000
H      -44.81940000     -32.09490000     -68.17300000
H      -42.65030000     -32.92680000     -69.04220000
C      -46.95200000     -30.85660000     -69.49140000
H      -47.32560000     -30.06730000     -70.09210000
H      -46.86030000     -30.51390000     -68.48320000
C      -43.51420000     -31.16400000     -73.22950000
H      -43.32650000     -30.09580000     -73.21870000
H      -42.52570000     -31.61960000     -73.35290000
S      -48.22720000     -32.28470000     -69.42550000
S      -44.62200000     -31.42680000     -74.73860000
C      -48.13530000     -32.85640000     -71.21980000
H      -49.02750000     -32.38760000     -71.63660000
H      -47.19420000     -32.40860000     -71.64410000
C      -44.97680000     -33.25880000     -75.02410000
H      -44.11590000     -33.74940000     -75.39010000
H      -45.61340000     -33.27240000     -75.87510000
C      -45.75460000     -34.04670000     -73.95400000
H      -46.58710000     -33.45940000     -73.56670000
H      -46.28960000     -34.89200000     -74.40720000
C      -48.01280000     -34.39820000     -71.36850000
H      -48.08070000     -34.58590000     -72.45300000
H      -48.92730000     -34.89380000     -70.94740000
C      -46.78280000     -34.89840000     -70.75370000
C      -46.73230000     -35.15930000     -69.42170000
C      -45.54330000     -34.95980000     -71.43060000
H      -47.46580000     -34.87270000     -68.68180000
C      -44.60250000     -35.49610000     -70.55530000
C      -44.95400000     -34.64580000     -72.76370000
C      -43.60040000     -34.99400000     -72.77300000
S      -45.11520000     -35.65430000     -68.79010000
S      -43.09090000     -35.77820000     -71.25360000
H      -42.93620000     -34.82300000     -73.59040000
