40
Properties=species:S:1:pos:R:3 #=T CELL(abcABC):=T 1.889726e+02=T 90.00000=T Traj:=T positionsangstrom=T Step:=T 0=T Bead:=T pbc="F F F"
C      -46.91690000     -35.71450000     -71.47920000
C      -47.72020000     -34.62320000     -71.69060000
C      -47.51360000     -33.88880000     -72.89060000
C      -46.39970000     -34.16480000     -73.67290000
C      -45.49690000     -35.23050000     -73.38020000
C      -45.81310000     -36.06770000     -72.33190000
H      -47.02180000     -36.26280000     -70.54260000
H      -48.19570000     -33.13810000     -73.21960000
H      -44.76520000     -35.56220000     -74.09410000
H      -45.30960000     -37.02710000     -72.15300000
C      -46.13950000     -33.37480000     -74.90530000
H      -47.03140000     -32.79060000     -75.25340000
H      -45.73570000     -33.98520000     -75.78850000
C      -48.85790000     -34.35060000     -70.75530000
H      -49.61510000     -33.83200000     -71.32660000
H      -49.33830000     -35.28320000     -70.40340000
S      -44.78240000     -32.16030000     -74.59100000
S      -48.42130000     -33.44920000     -69.26570000
C      -45.28190000     -31.28010000     -73.00730000
H      -45.86850000     -30.40270000     -73.35900000
H      -45.91270000     -32.00290000     -72.42880000
C      -47.71630000     -31.97460000     -70.05570000
H      -48.47830000     -31.17490000     -69.94860000
H      -47.64830000     -32.26640000     -71.09260000
C      -46.31750000     -31.63150000     -69.60650000
H      -45.98570000     -30.74790000     -70.19920000
H      -46.38070000     -31.24350000     -68.54970000
C      -44.13160000     -30.79850000     -72.11990000
H      -44.47830000     -30.16230000     -71.35050000
H      -43.39950000     -30.16710000     -72.73660000
C      -43.44950000     -31.94400000     -71.49170000
C      -42.23600000     -32.45630000     -71.89700000
C      -43.99880000     -32.71520000     -70.38410000
H      -41.62590000     -32.20260000     -72.79850000
C      -43.08940000     -33.69050000     -69.94860000
C      -45.19390000     -32.70560000     -69.56340000
C      -45.10590000     -33.69530000     -68.56240000
S      -41.63370000     -33.80430000     -70.83230000
S      -43.66390000     -34.60340000     -68.57070000
H      -45.79830000     -33.73360000     -67.76790000
