40
Properties=species:S:1:pos:R:3 #=T CELL(abcABC):=T 1.889726e+02=T 90.00000=T Traj:=T positionsangstrom=T Step:=T 0=T Bead:=T pbc="F F F"
C      -46.66020000     -35.74340000     -71.08640000
C      -47.74940000     -34.97040000     -71.56400000
C      -47.62560000     -34.20400000     -72.74350000
C      -46.40780000     -34.25900000     -73.46180000
C      -45.35220000     -35.11250000     -73.02470000
C      -45.46150000     -35.79380000     -71.79080000
H      -46.80360000     -36.25160000     -70.10960000
H      -48.49180000     -33.45780000     -72.95290000
H      -44.43710000     -35.04310000     -73.57280000
H      -44.64030000     -36.34720000     -71.36650000
C      -46.14970000     -33.29300000     -74.60770000
H      -47.03400000     -32.60420000     -74.69880000
H      -45.90780000     -33.84120000     -75.52600000
C      -48.99830000     -34.72770000     -70.69480000
H      -49.99660000     -34.54290000     -71.11150000
H      -49.08600000     -35.51610000     -70.02150000
S      -44.66600000     -32.21470000     -74.30310000
S      -48.72370000     -33.28980000     -69.49650000
C      -45.26920000     -30.94100000     -73.14370000
H      -45.52310000     -30.00270000     -73.59540000
H      -46.19420000     -31.21580000     -72.66270000
C      -47.53800000     -32.08970000     -70.41380000
H      -48.01490000     -31.20170000     -70.70930000
H      -47.23890000     -32.55380000     -71.27150000
C      -46.25210000     -31.75880000     -69.59680000
H      -45.93720000     -30.79040000     -69.92830000
H      -46.48470000     -31.61170000     -68.60690000
C      -44.10780000     -30.55340000     -72.15630000
H      -44.59920000     -29.86380000     -71.39360000
H      -43.36590000     -30.05620000     -72.68590000
C      -43.41830000     -31.68230000     -71.41510000
C      -42.08450000     -32.04340000     -71.64720000
C      -43.94940000     -32.66170000     -70.46450000
H      -41.41350000     -31.43010000     -72.12030000
C      -43.08750000     -33.64260000     -70.05950000
C      -45.22490000     -32.85050000     -69.71150000
C      -45.28720000     -34.00160000     -68.94580000
S      -41.56180000     -33.58310000     -70.89290000
S      -43.87230000     -34.96370000     -69.09550000
H      -46.15210000     -34.30240000     -68.34290000
