40
Properties=species:S:1:pos:R:3 #=T CELL(abcABC):=T 1.889726e+02=T 90.00000=T Traj:=T positionsangstrom=T Step:=T 0=T Bead:=T pbc="F F F"
C      -46.72070000     -35.92920000     -71.09670000
C      -47.49260000     -34.84250000     -71.55010000
C      -47.09190000     -34.01610000     -72.61410000
C      -45.77780000     -34.23250000     -73.15850000
C      -45.03370000     -35.31980000     -72.78340000
C      -45.48490000     -36.22170000     -71.77540000
H      -47.07040000     -36.63690000     -70.37220000
H      -47.61690000     -33.24030000     -73.02500000
H      -43.99820000     -35.34030000     -73.22570000
H      -44.94140000     -37.15220000     -71.60780000
C      -45.49290000     -33.45730000     -74.41260000
H      -46.47850000     -33.29320000     -74.93890000
H      -44.91410000     -34.13580000     -75.08410000
C      -48.86820000     -34.66650000     -70.81130000
H      -49.59210000     -34.40610000     -71.58590000
H      -49.24000000     -35.60900000     -70.40410000
S      -44.57060000     -31.89070000     -74.29480000
S      -48.72970000     -33.50150000     -69.40740000
C      -45.34490000     -30.92350000     -72.94020000
H      -45.87460000     -30.09490000     -73.33750000
H      -46.10020000     -31.52100000     -72.47200000
C      -47.90330000     -32.06650000     -70.13180000
H      -48.49480000     -31.28080000     -69.86680000
H      -47.83650000     -32.16750000     -71.22560000
C      -46.48390000     -31.73190000     -69.55970000
H      -46.20220000     -30.92920000     -70.22610000
H      -46.52060000     -31.39200000     -68.55980000
C      -44.34230000     -30.47690000     -71.89410000
H      -44.77250000     -29.87080000     -71.16680000
H      -43.62180000     -29.78590000     -72.34470000
C      -43.61820000     -31.63770000     -71.35420000
C      -42.40800000     -31.99630000     -71.87030000
C      -44.11530000     -32.62220000     -70.45440000
H      -41.95980000     -31.52870000     -72.76860000
C      -43.22900000     -33.76880000     -70.33350000
C      -45.36510000     -32.79020000     -69.72910000
C      -45.44290000     -34.00200000     -69.09610000
S      -41.73520000     -33.54160000     -71.25240000
S      -43.93590000     -34.91550000     -69.19590000
H      -46.25790000     -34.23330000     -68.39990000
