40
Properties=species:S:1:pos:R:3 #=T CELL(abcABC):=T 1.889726e+02=T 90.00000=T Traj:=T positionsangstrom=T Step:=T 0=T Bead:=T pbc="F F F"
C      -46.63050000     -35.95190000     -71.36650000
C      -47.39730000     -34.76550000     -71.62900000
C      -47.04870000     -33.98510000     -72.70710000
C      -45.95930000     -34.30630000     -73.51850000
C      -45.08220000     -35.36690000     -73.14540000
C      -45.40600000     -36.15160000     -71.99750000
H      -46.87670000     -36.61860000     -70.53580000
H      -47.83980000     -33.19100000     -72.91200000
H      -44.13140000     -35.54010000     -73.64540000
H      -44.69490000     -36.94080000     -71.73660000
C      -45.65740000     -33.42300000     -74.71820000
H      -46.51230000     -33.01040000     -75.21690000
H      -45.11230000     -33.96890000     -75.56020000
C      -48.62660000     -34.51940000     -70.84180000
H      -49.30570000     -33.88960000     -71.35840000
H      -49.17330000     -35.49080000     -70.70530000
S      -44.58660000     -31.94910000     -74.37130000
S      -48.36410000     -33.71310000     -69.15580000
C      -45.59800000     -30.98380000     -73.04590000
H      -46.04800000     -30.14490000     -73.49600000
H      -46.16360000     -31.73240000     -72.65860000
C      -47.75560000     -32.01380000     -69.79760000
H      -48.48640000     -31.29950000     -69.43840000
H      -47.67780000     -32.12750000     -70.85740000
C      -46.40510000     -31.63790000     -69.15330000
H      -46.07660000     -30.65290000     -69.34520000
H      -46.47290000     -31.74980000     -68.10280000
C      -44.55930000     -30.46850000     -71.94500000
H      -45.10200000     -29.94310000     -71.17010000
H      -43.89750000     -29.74740000     -72.41050000
C      -43.71640000     -31.61920000     -71.40730000
C      -42.55680000     -32.09610000     -71.97710000
C      -44.24740000     -32.57620000     -70.43860000
H      -41.93760000     -31.69790000     -72.76540000
C      -43.36820000     -33.64140000     -70.27480000
C      -45.29620000     -32.64450000     -69.44510000
C      -45.13210000     -33.70890000     -68.57840000
S      -42.05530000     -33.67650000     -71.36380000
S      -43.88420000     -34.85100000     -69.12780000
H      -45.85290000     -34.06660000     -67.86620000
