40
Properties=species:S:1:pos:R:3 #=T CELL(abcABC):=T 1.889726e+02=T 90.00000=T Traj:=T positionsangstrom=T Step:=T 0=T Bead:=T pbc="F F F"
C      -46.39580000     -35.76970000     -71.30070000
C      -47.35640000     -34.75610000     -71.60130000
C      -47.22190000     -33.98840000     -72.74870000
C      -46.15480000     -34.19840000     -73.60370000
C      -45.23840000     -35.24340000     -73.31900000
C      -45.31870000     -35.93290000     -72.09920000
H      -46.60460000     -36.28400000     -70.41740000
H      -47.88480000     -33.19600000     -72.88770000
H      -44.31920000     -35.46890000     -73.90810000
H      -44.53880000     -36.70820000     -71.83500000
C      -45.92350000     -33.27280000     -74.82540000
H      -46.93920000     -32.85390000     -75.01600000
H      -45.58030000     -33.79190000     -75.71370000
C      -48.52940000     -34.62760000     -70.68280000
H      -49.40540000     -34.22310000     -71.18500000
H      -48.86660000     -35.63580000     -70.39380000
S      -44.66920000     -31.87640000     -74.57430000
S      -48.22140000     -33.67470000     -69.16500000
C      -45.44240000     -31.00040000     -73.13210000
H      -46.09560000     -30.04610000     -73.50760000
H      -46.31640000     -31.57770000     -72.80500000
C      -47.57850000     -32.04550000     -69.77550000
H      -48.33860000     -31.29080000     -69.70170000
H      -47.43300000     -32.06250000     -70.90820000
C      -46.28640000     -31.70640000     -69.08370000
H      -46.04090000     -30.64750000     -69.38630000
H      -46.56740000     -31.71300000     -68.01340000
C      -44.62310000     -30.53330000     -71.91130000
H      -45.25450000     -29.98510000     -71.22790000
H      -43.88680000     -29.74970000     -72.35350000
C      -43.86830000     -31.72900000     -71.37570000
C      -42.80920000     -32.21190000     -72.12160000
C      -44.24920000     -32.73640000     -70.38110000
H      -42.28910000     -31.74990000     -72.92150000
C      -43.32330000     -33.75750000     -70.20020000
C      -45.26640000     -32.74240000     -69.33670000
C      -45.10030000     -33.79240000     -68.44290000
S      -42.13540000     -33.76820000     -71.46660000
S      -43.75630000     -34.82700000     -68.83330000
H      -45.53760000     -34.00880000     -67.48900000
