40
Properties=species:S:1:pos:R:3 #=T CELL(abcABC):=T 1.889726e+02=T 90.00000=T Traj:=T positionsangstrom=T Step:=T 0=T Bead:=T pbc="F F F"
C      -46.33890000     -35.67940000     -71.28850000
C      -47.34500000     -34.76810000     -71.58260000
C      -47.42160000     -34.06420000     -72.82860000
C      -46.27220000     -34.08940000     -73.64990000
C      -45.19330000     -34.92040000     -73.23460000
C      -45.23390000     -35.77440000     -72.16230000
H      -46.40180000     -36.26440000     -70.36070000
H      -48.31250000     -33.65970000     -73.02830000
H      -44.38200000     -34.94190000     -73.96280000
H      -44.42290000     -36.49040000     -71.95410000
C      -46.24760000     -33.28790000     -74.86600000
H      -47.22160000     -32.80720000     -75.02840000
H      -45.88590000     -33.86250000     -75.69180000
C      -48.54390000     -34.58060000     -70.71360000
H      -49.24150000     -33.94890000     -71.37480000
H      -48.94590000     -35.49520000     -70.30230000
S      -44.95090000     -31.92500000     -74.65580000
S      -48.31650000     -33.57170000     -69.18170000
C      -45.62350000     -30.92420000     -73.24640000
H      -46.12400000     -30.01640000     -73.58390000
H      -46.30940000     -31.57580000     -72.87950000
C      -47.40290000     -32.05390000     -69.64980000
H      -48.03260000     -31.10940000     -69.57930000
H      -47.17500000     -32.12570000     -70.68510000
C      -46.13670000     -31.68190000     -68.98150000
H      -45.92200000     -30.68010000     -69.39970000
H      -46.17790000     -31.51370000     -67.91620000
C      -44.56150000     -30.71020000     -72.11400000
H      -45.14000000     -30.24170000     -71.35650000
H      -43.82290000     -29.99640000     -72.39000000
C      -43.89900000     -31.97590000     -71.52790000
C      -42.79270000     -32.57640000     -72.17170000
C      -44.21880000     -32.76860000     -70.37330000
H      -42.31280000     -32.10240000     -73.01450000
C      -43.31410000     -33.78940000     -70.18570000
C      -45.04030000     -32.62250000     -69.22940000
C      -44.83730000     -33.62880000     -68.27900000
S      -42.05820000     -33.95110000     -71.40310000
S      -43.58040000     -34.77070000     -68.74170000
H      -45.26420000     -33.62970000     -67.26960000
