40
Properties=species:S:1:pos:R:3 #=T CELL(abcABC):=T 1.889726e+02=T 90.00000=T Traj:=T positionsangstrom=T Step:=T 0=T Bead:=T pbc="F F F"
C      -45.75010000     -34.46000000     -68.30450000
C      -44.57820000     -34.96850000     -68.90450000
C      -43.47380000     -34.15970000     -69.02200000
C      -43.55010000     -32.72250000     -68.77460000
C      -44.69080000     -32.17880000     -68.24820000
C      -45.75530000     -33.08970000     -68.01810000
H      -46.68400000     -35.03350000     -68.16980000
H      -42.56700000     -34.48030000     -69.54540000
H      -44.84880000     -31.12120000     -68.12990000
H      -46.68810000     -32.66940000     -67.63480000
C      -42.28120000     -31.93500000     -68.84580000
H      -41.58180000     -32.35080000     -68.16400000
H      -42.51060000     -30.86800000     -68.60080000
C      -44.44880000     -36.38570000     -69.24440000
H      -43.68810000     -36.55580000     -69.98090000
H      -44.20450000     -37.02580000     -68.42450000
S      -41.44200000     -31.96050000     -70.51790000
S      -46.07500000     -37.10760000     -69.79900000
C      -42.83270000     -31.36360000     -71.60090000
H      -43.48220000     -30.66340000     -71.09840000
H      -42.42680000     -30.87820000     -72.44510000
C      -46.72320000     -36.40880000     -71.40060000
H      -47.81210000     -36.21660000     -71.27830000
H      -46.70370000     -37.21000000     -72.19160000
C      -45.88780000     -35.37060000     -72.08130000
H      -45.12020000     -34.84090000     -71.44770000
H      -45.21570000     -35.92740000     -72.70470000
C      -43.73090000     -32.50190000     -72.09610000
H      -43.84720000     -33.37360000     -71.43320000
H      -43.33250000     -33.02920000     -72.99100000
C      -45.13470000     -32.04980000     -72.66540000
C      -45.27420000     -30.76800000     -73.14710000
C      -46.24590000     -32.93160000     -73.04080000
H      -44.58340000     -29.99920000     -72.89540000
C      -47.14320000     -32.20780000     -73.76140000
C      -46.67210000     -34.37310000     -72.94900000
C      -47.87150000     -34.63690000     -73.54390000
S      -46.83830000     -30.49700000     -73.90380000
S      -48.55140000     -33.12780000     -74.27030000
H      -48.36790000     -35.58590000     -73.56460000
