40
Properties=species:S:1:pos:R:3 #=T CELL(abcABC):=T 1.889726e+02=T 90.00000=T Traj:=T positionsangstrom=T Step:=T 0=T Bead:=T pbc="F F F"
C      -46.38040000     -35.43910000     -71.11940000
C      -47.60210000     -34.81500000     -71.57480000
C      -47.57140000     -34.12220000     -72.79350000
C      -46.50400000     -34.17040000     -73.66960000
C      -45.36160000     -34.85490000     -73.28070000
C      -45.29460000     -35.48450000     -71.99250000
H      -46.29420000     -35.86420000     -70.14270000
H      -48.51940000     -33.59240000     -73.20180000
H      -44.43760000     -34.80020000     -73.90130000
H      -44.36750000     -35.96420000     -71.67010000
C      -46.62930000     -33.26940000     -74.85520000
H      -47.56800000     -32.82360000     -74.98340000
H      -46.36430000     -33.77850000     -75.75350000
C      -48.64520000     -34.61120000     -70.61700000
H      -49.53260000     -34.15780000     -71.04440000
H      -49.00770000     -35.57110000     -70.15050000
S      -45.39420000     -31.80260000     -74.77580000
S      -48.20250000     -33.56050000     -69.12150000
C      -45.58260000     -31.10140000     -73.06460000
H      -46.14710000     -30.14160000     -73.17530000
H      -46.38910000     -31.77770000     -72.51780000
C      -47.39260000     -32.08300000     -69.92940000
H      -48.19020000     -31.39620000     -69.90790000
H      -47.36690000     -32.22230000     -71.07100000
C      -46.11270000     -31.51540000     -69.36670000
H      -45.72190000     -30.60910000     -69.85450000
H      -46.41560000     -31.17780000     -68.33850000
C      -44.23570000     -31.02690000     -72.29590000
H      -44.47440000     -30.31170000     -71.49220000
H      -43.45820000     -30.60930000     -72.92110000
C      -43.74130000     -32.31660000     -71.71470000
C      -42.60860000     -32.91730000     -72.27800000
C      -44.07440000     -32.89860000     -70.44300000
H      -42.26590000     -32.58870000     -73.24990000
C      -43.12620000     -33.87460000     -70.09710000
C      -45.03390000     -32.62670000     -69.31160000
C      -44.74810000     -33.42420000     -68.21760000
S      -41.81690000     -34.14170000     -71.38330000
S      -43.38850000     -34.46520000     -68.47410000
H      -45.24440000     -33.17480000     -67.24810000
