40
Properties=species:S:1:pos:R:3 #=T CELL(abcABC):=T 1.889726e+02=T 90.00000=T Traj:=T positionsangstrom=T Step:=T 0=T Bead:=T pbc="F F F"
C      -46.39630000     -35.65530000     -71.31800000
C      -47.55070000     -34.85740000     -71.52460000
C      -47.59970000     -34.10380000     -72.69090000
C      -46.56380000     -34.16250000     -73.62800000
C      -45.39490000     -34.87280000     -73.37420000
C      -45.30690000     -35.58430000     -72.17160000
H      -46.36020000     -36.22750000     -70.44040000
H      -48.48820000     -33.40510000     -72.96810000
H      -44.66550000     -34.89580000     -74.15580000
H      -44.39180000     -36.13290000     -71.92860000
C      -46.70400000     -33.28770000     -74.93000000
H      -47.76590000     -32.85150000     -75.02340000
H      -46.46320000     -33.87650000     -75.83450000
C      -48.62760000     -34.74510000     -70.43030000
H      -49.55380000     -34.27520000     -70.88320000
H      -48.71860000     -35.71520000     -69.98920000
S      -45.49630000     -31.84050000     -74.79310000
S      -47.97610000     -33.54100000     -69.10540000
C      -45.68370000     -31.26630000     -73.07640000
H      -46.13720000     -30.39980000     -73.02850000
H      -46.24450000     -32.02470000     -72.52300000
C      -47.44240000     -32.07260000     -70.01160000
H      -48.28290000     -31.39340000     -70.07660000
H      -47.20190000     -32.44590000     -71.05340000
C      -46.18950000     -31.43890000     -69.36370000
H      -45.86930000     -30.64960000     -70.03290000
H      -46.42680000     -30.95790000     -68.41570000
C      -44.28410000     -31.03260000     -72.35750000
H      -44.33900000     -30.25980000     -71.60640000
H      -43.63410000     -30.64670000     -73.11740000
C      -43.64920000     -32.22430000     -71.66280000
C      -42.56570000     -32.79120000     -72.26940000
C      -43.97120000     -32.77530000     -70.38080000
H      -42.24790000     -32.56820000     -73.29050000
C      -43.04860000     -33.75820000     -70.01370000
C      -45.00600000     -32.51930000     -69.32510000
C      -44.75780000     -33.29710000     -68.22240000
S      -41.86920000     -34.21830000     -71.32040000
S      -43.41150000     -34.36310000     -68.45380000
H      -45.36790000     -33.33260000     -67.31630000
