40
Properties=species:S:1:pos:R:3 #=T CELL(abcABC):=T 1.889726e+02=T 90.00000=T Traj:=T positionsangstrom=T Step:=T 0=T Bead:=T pbc="F F F"
C      -46.43900000     -35.79040000     -71.37560000
C      -47.48480000     -34.88750000     -71.44670000
C      -47.58250000     -34.15830000     -72.64880000
C      -46.64010000     -34.15670000     -73.67590000
C      -45.53290000     -35.08310000     -73.57000000
C      -45.46260000     -35.83080000     -72.42660000
H      -46.24780000     -36.37180000     -70.46950000
H      -48.39200000     -33.43730000     -72.67570000
H      -44.74800000     -35.10150000     -74.34370000
H      -44.71300000     -36.52660000     -72.27190000
C      -46.68580000     -33.21690000     -74.82520000
H      -47.67570000     -32.85990000     -74.93840000
H      -46.41710000     -33.73000000     -75.71150000
C      -48.51560000     -34.67660000     -70.34950000
H      -49.42930000     -34.22190000     -70.79260000
H      -48.82240000     -35.62270000     -69.96260000
S      -45.50160000     -31.82510000     -74.83560000
S      -47.81400000     -33.61860000     -68.94680000
C      -45.64390000     -31.23020000     -73.10070000
H      -46.20120000     -30.19320000     -73.14530000
H      -46.30040000     -31.97840000     -72.61980000
C      -47.43610000     -32.08190000     -69.87630000
H      -48.21070000     -31.25030000     -69.77380000
H      -47.20280000     -32.36490000     -70.87140000
C      -46.09500000     -31.40970000     -69.41030000
H      -45.86780000     -30.79240000     -70.34300000
H      -46.15290000     -30.76520000     -68.51640000
C      -44.26060000     -30.99400000     -72.44610000
H      -44.34260000     -30.10500000     -71.74460000
H      -43.53900000     -30.63690000     -73.26110000
C      -43.61910000     -32.13510000     -71.75760000
C      -42.68820000     -32.94200000     -72.27560000
C      -44.01400000     -32.63000000     -70.38720000
H      -42.16410000     -32.80240000     -73.20640000
C      -43.13410000     -33.67310000     -70.08070000
C      -44.96320000     -32.33530000     -69.25260000
C      -44.85130000     -33.18700000     -68.19010000
S      -41.90380000     -34.16160000     -71.25020000
S      -43.42720000     -34.36800000     -68.50190000
H      -45.46590000     -33.28190000     -67.33090000
