40
Properties=species:S:1:pos:R:3 #=T CELL(abcABC):=T 1.889726e+02=T 90.00000=T Traj:=T positionsangstrom=T Step:=T 0=T Bead:=T pbc="F F F"
C      -46.49520000     -35.88770000     -71.52920000
C      -47.42440000     -34.85020000     -71.46260000
C      -47.58340000     -34.05330000     -72.60870000
C      -46.62670000     -34.06670000     -73.64310000
C      -45.68860000     -35.08080000     -73.68310000
C      -45.68670000     -35.99710000     -72.64620000
H      -46.35020000     -36.50700000     -70.63150000
H      -48.38550000     -33.30540000     -72.63370000
H      -45.05830000     -35.37870000     -74.51360000
H      -44.92550000     -36.80890000     -72.73760000
C      -46.74890000     -33.01950000     -74.76850000
H      -47.63360000     -32.45560000     -74.56370000
H      -46.83410000     -33.42900000     -75.75920000
C      -48.43670000     -34.67780000     -70.30310000
H      -49.28220000     -34.15230000     -70.63900000
H      -48.62870000     -35.60750000     -69.80430000
S      -45.29630000     -31.88770000     -74.70630000
S      -47.67690000     -33.60270000     -68.86410000
C      -45.64260000     -31.02090000     -73.07510000
H      -46.17820000     -30.13000000     -73.26530000
H      -46.17380000     -31.70980000     -72.44190000
C      -47.28140000     -31.95550000     -69.67650000
H      -48.01870000     -31.30200000     -69.30280000
H      -47.13810000     -32.01610000     -70.81610000
C      -45.96940000     -31.42120000     -69.11390000
H      -45.61130000     -30.49360000     -69.56960000
H      -46.06770000     -31.13980000     -68.04640000
C      -44.35970000     -30.79640000     -72.30790000
H      -44.61740000     -30.06370000     -71.46370000
H      -43.47700000     -30.33870000     -72.88800000
C      -43.75210000     -32.07270000     -71.75070000
C      -42.84540000     -32.80040000     -72.42800000
C      -43.99930000     -32.64810000     -70.42220000
H      -42.56910000     -32.75030000     -73.47610000
C      -43.20960000     -33.86360000     -70.17690000
C      -44.83290000     -32.40340000     -69.25740000
C      -44.58550000     -33.19540000     -68.15750000
S      -42.22440000     -34.26760000     -71.56310000
S      -43.40380000     -34.48330000     -68.50390000
H      -44.95280000     -33.16800000     -67.16260000
