40
Properties=species:S:1:pos:R:3 #=T CELL(abcABC):=T 1.889726e+02=T 90.00000=T Traj:=T positionsangstrom=T Step:=T 0=T Bead:=T pbc="F F F"
C      -46.56900000     -35.67380000     -71.37140000
C      -47.57030000     -34.62810000     -71.49790000
C      -47.59090000     -33.86760000     -72.63020000
C      -46.65690000     -34.02720000     -73.69150000
C      -45.72010000     -35.08650000     -73.57780000
C      -45.70720000     -35.89710000     -72.40160000
H      -46.42690000     -36.15390000     -70.39110000
H      -48.31880000     -33.00610000     -72.83750000
H      -45.06420000     -35.27680000     -74.41800000
H      -44.94270000     -36.65130000     -72.18120000
C      -46.66620000     -33.04950000     -74.81050000
H      -47.58930000     -32.43850000     -74.87380000
H      -46.60470000     -33.53940000     -75.76370000
C      -48.54360000     -34.28050000     -70.31670000
H      -49.40960000     -33.63910000     -70.57160000
H      -48.99220000     -35.20370000     -69.94890000
S      -45.20170000     -31.85060000     -74.64000000
S      -47.73110000     -33.46990000     -68.87080000
C      -45.60470000     -30.95730000     -73.00740000
H      -45.94040000     -30.02430000     -73.24430000
H      -46.47450000     -31.50070000     -72.70430000
C      -46.96970000     -31.95650000     -69.59610000
H      -47.66470000     -31.05170000     -69.46610000
H      -46.90430000     -32.07640000     -70.66460000
C      -45.69910000     -31.53620000     -68.86440000
H      -45.44480000     -30.52500000     -69.17950000
H      -45.85680000     -31.49130000     -67.79680000
C      -44.46450000     -30.78670000     -71.99580000
H      -44.81110000     -30.28800000     -71.08560000
H      -43.72560000     -30.14420000     -72.43890000
C      -43.82930000     -32.14590000     -71.63990000
C      -43.13130000     -32.89870000     -72.51450000
C      -43.98100000     -32.82090000     -70.38740000
H      -42.80890000     -32.64580000     -73.45910000
C      -43.30180000     -33.98670000     -70.36460000
C      -44.66420000     -32.54620000     -69.15710000
C      -44.35680000     -33.42240000     -68.21650000
S      -42.49600000     -34.42970000     -71.79090000
S      -43.23200000     -34.63940000     -68.74590000
H      -44.73000000     -33.27830000     -67.19850000
