40
Properties=species:S:1:pos:R:3 #=T CELL(abcABC):=T 1.889726e+02=T 90.00000=T Traj:=T positionsangstrom=T Step:=T 0=T Bead:=T pbc="F F F"
C      -46.71670000     -35.50450000     -71.21620000
C      -47.58330000     -34.45670000     -71.40530000
C      -47.56010000     -33.68520000     -72.57530000
C      -46.52100000     -33.87780000     -73.51610000
C      -45.63190000     -34.95880000     -73.30780000
C      -45.77550000     -35.80310000     -72.18750000
H      -46.82630000     -36.22650000     -70.34960000
H      -48.35230000     -32.92720000     -72.59730000
H      -44.94650000     -35.11720000     -74.11680000
H      -45.23390000     -36.72700000     -72.15290000
C      -46.46140000     -33.13980000     -74.78330000
H      -47.48740000     -32.79460000     -74.94920000
H      -46.13370000     -33.80760000     -75.59230000
C      -48.65860000     -34.18910000     -70.34660000
H      -49.32190000     -33.38320000     -70.73530000
H      -49.16240000     -35.07700000     -69.93500000
S      -45.36200000     -31.71940000     -74.77670000
S      -47.77980000     -33.43510000     -68.82060000
C      -45.68060000     -31.00510000     -73.10850000
H      -46.06870000     -29.90990000     -73.22430000
H      -46.47810000     -31.58200000     -72.62980000
C      -47.01450000     -31.81450000     -69.38760000
H      -47.54220000     -30.97530000     -68.89100000
H      -46.97320000     -31.77490000     -70.48930000
C      -45.58530000     -31.61330000     -68.85160000
H      -45.07940000     -30.69450000     -69.16190000
H      -45.72240000     -31.53580000     -67.73890000
C      -44.46120000     -30.94580000     -72.13090000
H      -44.82640000     -30.30040000     -71.24300000
H      -43.70470000     -30.41880000     -72.77120000
C      -43.92620000     -32.25410000     -71.68780000
C      -43.09770000     -32.91960000     -72.55430000
C      -44.01420000     -32.97350000     -70.41080000
H      -42.77430000     -32.48400000     -73.50450000
C      -43.19050000     -34.09220000     -70.39690000
C      -44.68020000     -32.72000000     -69.15460000
C      -44.26970000     -33.65590000     -68.25430000
S      -42.35960000     -34.36150000     -71.89950000
S      -43.25490000     -34.84640000     -68.86740000
H      -44.39710000     -33.57340000     -67.19200000
