40
Properties=species:S:1:pos:R:3 #=T CELL(abcABC):=T 1.889726e+02=T 90.00000=T Traj:=T positionsangstrom=T Step:=T 0=T Bead:=T pbc="F F F"
C      -46.65230000     -35.25150000     -71.02430000
C      -47.61390000     -34.31370000     -71.33650000
C      -47.49130000     -33.65550000     -72.61980000
C      -46.49040000     -33.98070000     -73.55650000
C      -45.60880000     -35.04300000     -73.25550000
C      -45.73320000     -35.73300000     -71.99320000
H      -46.76960000     -35.65760000     -70.00600000
H      -48.21300000     -32.95660000     -72.88180000
H      -44.73250000     -35.26020000     -73.87640000
H      -44.94330000     -36.45320000     -71.76550000
C      -46.43080000     -33.20000000     -74.82330000
H      -47.42190000     -32.99240000     -75.21680000
H      -45.83230000     -33.76270000     -75.59570000
C      -48.63380000     -33.86360000     -70.32550000
H      -49.24000000     -33.04550000     -70.71150000
H      -49.37640000     -34.61650000     -69.95840000
S      -45.44440000     -31.59530000     -74.68640000
S      -47.88820000     -33.29330000     -68.68930000
C      -45.74000000     -30.87180000     -73.01390000
H      -46.01540000     -29.82170000     -73.15210000
H      -46.63390000     -31.25970000     -72.55880000
C      -47.04070000     -31.75980000     -69.34640000
H      -47.69370000     -30.93990000     -69.22010000
H      -47.10930000     -32.00850000     -70.43980000
C      -45.62520000     -31.79840000     -68.84020000
H      -45.15650000     -30.79650000     -68.93360000
H      -45.69440000     -31.96510000     -67.76900000
C      -44.52640000     -30.98460000     -72.11390000
H      -44.77990000     -30.49350000     -71.20900000
H      -43.71330000     -30.43630000     -72.52160000
C      -43.89110000     -32.35680000     -71.75260000
C      -42.97070000     -32.94260000     -72.64180000
C      -43.96160000     -33.02660000     -70.52050000
H      -42.95960000     -32.77780000     -73.74710000
C      -43.00790000     -34.08200000     -70.42810000
C      -44.67210000     -32.87530000     -69.27450000
C      -44.40080000     -33.86810000     -68.27980000
S      -42.30530000     -34.43080000     -72.03850000
S      -43.23860000     -35.04270000     -69.00920000
H      -44.94460000     -34.10050000     -67.36840000
