40
Properties=species:S:1:pos:R:3 #=T CELL(abcABC):=T 1.889726e+02=T 90.00000=T Traj:=T positionsangstrom=T Step:=T 0=T Bead:=T pbc="F F F"
C      -46.66370000     -35.32160000     -70.92610000
C      -47.65220000     -34.34380000     -71.27420000
C      -47.51240000     -33.69860000     -72.50330000
C      -46.51080000     -34.05480000     -73.46480000
C      -45.58490000     -34.99370000     -73.12680000
C      -45.68360000     -35.62160000     -71.84420000
H      -46.77860000     -35.63120000     -69.93480000
H      -48.08380000     -32.85740000     -72.80550000
H      -44.89490000     -35.37780000     -73.88050000
H      -44.93790000     -36.41560000     -71.71800000
C      -46.47290000     -33.21580000     -74.77400000
H      -47.40790000     -32.92060000     -75.22550000
H      -46.01270000     -33.76290000     -75.54830000
C      -48.73110000     -33.90770000     -70.29930000
H      -49.52750000     -33.41780000     -70.86800000
H      -49.30870000     -34.80460000     -69.96730000
S      -45.37630000     -31.69890000     -74.62710000
S      -48.06950000     -33.11830000     -68.76150000
C      -45.70700000     -31.05340000     -72.91390000
H      -46.31330000     -30.20520000     -73.07050000
H      -46.24390000     -31.79460000     -72.29240000
C      -46.95760000     -31.73070000     -69.33820000
H      -47.30020000     -30.71940000     -69.03860000
H      -46.95190000     -31.67610000     -70.42660000
C      -45.48680000     -31.72650000     -68.87550000
H      -45.08790000     -30.77340000     -69.23110000
H      -45.54480000     -31.61400000     -67.76320000
C      -44.41720000     -30.88660000     -72.08030000
H      -44.70030000     -30.19160000     -71.22490000
H      -43.57870000     -30.34370000     -72.64360000
C      -43.84520000     -32.27450000     -71.77090000
C      -42.89300000     -32.80220000     -72.64850000
C      -43.97360000     -32.99410000     -70.53740000
H      -42.61800000     -32.50020000     -73.64000000
C      -43.33420000     -34.23140000     -70.63430000
C      -44.60160000     -32.88430000     -69.21860000
C      -44.19930000     -33.92160000     -68.34040000
S      -42.33100000     -34.40100000     -72.10290000
S      -43.23560000     -35.12870000     -69.15390000
H      -44.75740000     -34.15740000     -67.44270000
