40
Properties=species:S:1:pos:R:3 #=T CELL(abcABC):=T 1.889726e+02=T 90.00000=T Traj:=T positionsangstrom=T Step:=T 0=T Bead:=T pbc="F F F"
C      -42.86700000     -36.70750000     -70.16030000
C      -42.93000000     -36.18160000     -71.50020000
C      -42.62240000     -34.82420000     -71.64570000
C      -42.27450000     -34.07640000     -70.53270000
C      -42.19250000     -34.62780000     -69.20950000
C      -42.37930000     -35.98500000     -69.03640000
H      -42.99550000     -37.80930000     -70.02700000
H      -42.86460000     -34.41650000     -72.63180000
H      -42.00150000     -33.98860000     -68.34390000
H      -42.38900000     -36.46660000     -68.05550000
C      -41.81940000     -32.61600000     -70.87640000
H      -42.05700000     -32.53900000     -71.90750000
H      -40.75050000     -32.66420000     -70.79320000
C      -43.56760000     -37.09310000     -72.51370000
H      -42.85040000     -37.81270000     -72.90730000
H      -44.38040000     -37.60530000     -71.98270000
S      -42.41710000     -31.29550000     -69.74220000
S      -44.26440000     -36.07800000     -73.84830000
C      -44.23560000     -31.72730000     -69.74950000
H      -44.39280000     -32.77100000     -69.72090000
H      -44.61270000     -31.25570000     -68.79560000
C      -45.78800000     -35.39320000     -73.11790000
H      -45.80810000     -35.81980000     -72.13120000
H      -46.68340000     -35.70100000     -73.66620000
C      -45.81610000     -33.88800000     -72.90240000
H      -44.97390000     -33.54610000     -72.30600000
H      -45.55530000     -33.36590000     -73.83060000
C      -44.95450000     -31.22700000     -71.02640000
H      -44.67400000     -31.72340000     -71.94950000
H      -44.61720000     -30.15850000     -71.25090000
C      -46.42960000     -31.25160000     -70.81470000
C      -47.11080000     -30.22610000     -70.23640000
C      -47.28460000     -32.14650000     -71.57580000
H      -46.62150000     -29.41250000     -69.69540000
C      -48.62310000     -31.94280000     -71.30540000
C      -47.14320000     -33.29320000     -72.43600000
C      -48.36190000     -33.87870000     -72.76640000
S      -48.80160000     -30.50870000     -70.27010000
S      -49.75050000     -32.96960000     -72.08370000
H      -48.66540000     -34.84000000     -73.11710000
