40
Properties=species:S:1:pos:R:3 #=T CELL(abcABC):=T 1.889726e+02=T 90.00000=T Traj:=T positionsangstrom=T Step:=T 0=T Bead:=T pbc="F F F"
C      -43.92790000     -36.50080000     -72.51500000
C      -43.20040000     -35.96400000     -71.43100000
C      -42.47930000     -34.74020000     -71.55340000
C      -42.50750000     -34.16380000     -72.80730000
C      -43.27790000     -34.63570000     -73.88430000
C      -43.99060000     -35.85550000     -73.72120000
H      -44.54520000     -37.39980000     -72.36210000
H      -41.98930000     -34.29800000     -70.75810000
H      -43.25960000     -34.28790000     -74.91230000
H      -44.68210000     -36.27250000     -74.48550000
C      -41.66730000     -32.92730000     -73.10620000
H      -41.85530000     -32.51050000     -74.10290000
H      -40.66670000     -33.16970000     -73.02340000
C      -43.26570000     -36.57050000     -70.05280000
H      -43.76140000     -37.51850000     -70.16620000
H      -42.25270000     -36.68510000     -69.65680000
S      -42.08730000     -31.53740000     -71.85240000
S      -44.14060000     -35.35850000     -68.80940000
C      -43.99510000     -31.68740000     -71.97590000
H      -44.25610000     -30.68720000     -72.39730000
H      -44.26340000     -32.49460000     -72.70230000
C      -45.89880000     -34.93460000     -69.29280000
H      -45.94880000     -33.83820000     -68.96240000
H      -46.55910000     -35.56000000     -68.67500000
C      -46.13120000     -34.86200000     -70.82420000
H      -45.24430000     -34.35920000     -71.20260000
H      -46.17440000     -35.91360000     -71.17980000
C      -44.63450000     -31.82610000     -70.58780000
H      -44.17140000     -31.10410000     -69.89060000
H      -44.48370000     -32.79450000     -70.23800000
C      -46.11600000     -31.57370000     -70.61570000
C      -46.57610000     -30.25130000     -70.67310000
C      -47.17080000     -32.52310000     -71.04100000
H      -45.93210000     -29.39630000     -70.47420000
C      -48.34190000     -31.89730000     -71.29250000
C      -47.29620000     -33.94700000     -71.12630000
C      -48.55980000     -34.34760000     -71.50550000
S      -48.25530000     -30.08980000     -71.04410000
S      -49.69040000     -33.01840000     -71.65180000
H      -49.15490000     -35.29020000     -71.56690000
