40
Properties=species:S:1:pos:R:3 #=T CELL(abcABC):=T 1.889726e+02=T 90.00000=T Traj:=T positionsangstrom=T Step:=T 0=T Bead:=T pbc="F F F"
C      -43.93190000     -36.53780000     -72.38490000
C      -43.31420000     -35.91620000     -71.27220000
C      -42.40390000     -34.85710000     -71.52770000
C      -42.34050000     -34.30640000     -72.79620000
C      -43.09240000     -34.85220000     -73.87240000
C      -43.85150000     -36.00870000     -73.67290000
H      -44.47520000     -37.44090000     -72.44730000
H      -41.80660000     -34.43180000     -70.75730000
H      -43.13830000     -34.28170000     -74.77600000
H      -44.36030000     -36.49040000     -74.51870000
C      -41.61330000     -32.95660000     -73.07860000
H      -41.85240000     -32.61050000     -74.08620000
H      -40.48720000     -33.20580000     -73.13020000
C      -43.46250000     -36.42860000     -69.90780000
H      -44.27990000     -37.17090000     -69.96560000
H      -42.61100000     -36.89220000     -69.45360000
S      -41.99080000     -31.63980000     -71.83180000
S      -44.14080000     -35.21170000     -68.66030000
C      -43.91400000     -31.53820000     -71.96970000
H      -44.13700000     -30.56960000     -72.29550000
H      -44.31150000     -32.30900000     -72.67580000
C      -45.92610000     -35.08870000     -69.20700000
H      -46.41760000     -34.32950000     -68.66950000
H      -46.44380000     -35.99010000     -68.84360000
C      -46.19300000     -34.90780000     -70.74160000
H      -45.37430000     -34.62570000     -71.31130000
H      -46.53950000     -35.88130000     -71.21570000
C      -44.67750000     -31.73160000     -70.65230000
H      -44.20500000     -31.12850000     -69.83590000
H      -44.54440000     -32.72550000     -70.30890000
C      -46.15780000     -31.44480000     -70.74620000
C      -46.63550000     -30.16120000     -70.92380000
C      -47.23960000     -32.47070000     -70.98150000
H      -45.98740000     -29.23370000     -70.99420000
C      -48.41980000     -31.83780000     -71.31950000
C      -47.34420000     -33.97100000     -71.03150000
C      -48.57610000     -34.39420000     -71.43720000
S      -48.34360000     -30.08120000     -71.24710000
S      -49.65360000     -32.95960000     -71.79930000
H      -48.97390000     -35.41870000     -71.47450000
