40
Properties=species:S:1:pos:R:3 #=T CELL(abcABC):=T 1.889726e+02=T 90.00000=T Traj:=T positionsangstrom=T Step:=T 0=T Bead:=T pbc="F F F"
C      -42.51280000     -36.94910000     -71.47230000
C      -43.03610000     -35.97710000     -70.58980000
C      -42.54150000     -34.62050000     -70.85120000
C      -41.87920000     -34.29590000     -72.01670000
C      -41.64390000     -35.37320000     -72.91310000
C      -41.81320000     -36.72340000     -72.59760000
H      -42.68930000     -38.00040000     -71.15280000
H      -42.76790000     -33.79360000     -70.22420000
H      -41.12060000     -35.10140000     -73.80120000
H      -41.45850000     -37.49160000     -73.27310000
C      -41.58070000     -32.88510000     -72.39890000
H      -41.75260000     -32.83340000     -73.49140000
H      -40.50220000     -32.68640000     -72.32070000
C      -43.67390000     -36.44670000     -69.31660000
H      -44.35650000     -37.28930000     -69.50150000
H      -42.95080000     -36.94850000     -68.63870000
S      -42.46860000     -31.57460000     -71.49480000
S      -44.56150000     -35.07790000     -68.45790000
C      -44.23520000     -31.71920000     -72.13140000
H      -44.37280000     -31.20440000     -73.13420000
H      -44.52460000     -32.73970000     -72.32120000
C      -46.20200000     -34.98750000     -69.23590000
H      -46.78880000     -34.33390000     -68.67200000
H      -46.74540000     -35.97550000     -69.18400000
C      -46.11220000     -34.43380000     -70.67290000
H      -45.18730000     -33.77450000     -70.58300000
H      -45.96510000     -35.27560000     -71.40920000
C      -45.14020000     -31.23720000     -70.99860000
H      -44.76590000     -30.26080000     -70.67770000
H      -45.03390000     -31.84470000     -70.10450000
C      -46.52330000     -31.17900000     -71.48630000
C      -46.99230000     -30.03220000     -72.06740000
C      -47.43990000     -32.25100000     -71.44590000
H      -46.51310000     -29.05570000     -72.05070000
C      -48.68820000     -31.84270000     -71.98800000
C      -47.32660000     -33.69930000     -71.20820000
C      -48.46030000     -34.34440000     -71.64360000
S      -48.74030000     -30.21100000     -72.40780000
S      -49.70920000     -33.20630000     -72.26340000
H      -48.70900000     -35.39550000     -71.34080000
