40
Properties=species:S:1:pos:R:3 #=T CELL(abcABC):=T 1.889726e+02=T 90.00000=T Traj:=T positionsangstrom=T Step:=T 0=T Bead:=T pbc="F F F"
C      -44.69960000     -30.18410000     -73.01070000
C      -44.77970000     -31.09880000     -71.91290000
C      -45.90290000     -31.96350000     -71.85930000
C      -46.90140000     -31.90300000     -72.89530000
C      -46.89060000     -30.90060000     -73.87110000
C      -45.81380000     -29.99120000     -73.87590000
H      -43.81670000     -29.59020000     -73.05250000
H      -46.03490000     -32.66290000     -71.04360000
H      -47.79160000     -30.77470000     -74.46110000
H      -45.78320000     -29.22580000     -74.54590000
C      -48.02570000     -32.99350000     -72.77530000
H      -49.04270000     -32.66410000     -73.05260000
H      -47.98640000     -33.44950000     -71.78240000
C      -43.73570000     -31.17790000     -70.89350000
H      -43.39500000     -30.18700000     -70.64760000
H      -43.83180000     -31.86480000     -70.06490000
S      -47.68530000     -34.27770000     -74.10900000
S      -42.05550000     -31.83660000     -71.56090000
C      -45.95040000     -34.77380000     -73.71910000
H      -45.51220000     -35.05840000     -74.73550000
H      -45.45820000     -33.79130000     -73.56820000
C      -42.59020000     -33.57020000     -72.23840000
H      -41.97500000     -33.90630000     -73.05750000
H      -43.62610000     -33.42640000     -72.61680000
C      -42.55020000     -34.59130000     -71.05090000
H      -42.51060000     -35.63360000     -71.51220000
H      -41.60570000     -34.46260000     -70.55710000
C      -45.68860000     -35.67660000     -72.54900000
H      -44.52270000     -35.82950000     -72.54570000
H      -46.24450000     -36.61520000     -72.66900000
C      -45.94780000     -35.27460000     -71.07600000
C      -47.24530000     -35.34830000     -70.66870000
C      -45.03190000     -34.86150000     -70.06110000
H      -48.05890000     -35.62310000     -71.38770000
C      -45.72810000     -34.46380000     -68.90150000
C      -43.63310000     -34.46100000     -69.95220000
C      -43.29900000     -33.95380000     -68.71100000
S      -47.39910000     -35.00440000     -68.94070000
S      -44.69390000     -33.86310000     -67.59050000
H      -42.36430000     -33.69470000     -68.22710000
