40
Properties=species:S:1:pos:R:3 #=T CELL(abcABC):=T 1.889726e+02=T 90.00000=T Traj:=T positionsangstrom=T Step:=T 0=T Bead:=T pbc="F F F"
C      -46.01900000     -36.04300000     -71.10510000
C      -47.10460000     -35.19900000     -70.95550000
C      -47.35770000     -34.32700000     -72.00160000
C      -46.66850000     -34.33810000     -73.23140000
C      -45.59120000     -35.24880000     -73.33770000
C      -45.30230000     -36.10010000     -72.28450000
H      -45.74310000     -36.61100000     -70.26740000
H      -48.36190000     -33.83980000     -72.01680000
H      -44.98240000     -35.27180000     -74.29570000
H      -44.50010000     -36.91150000     -72.39670000
C      -47.27510000     -33.63900000     -74.43400000
H      -48.33830000     -33.66810000     -74.27040000
H      -46.99890000     -34.22660000     -75.27490000
C      -47.70160000     -35.07870000     -69.62810000
H      -48.77950000     -34.91330000     -69.77780000
H      -47.50960000     -36.00450000     -69.03700000
S      -46.57290000     -31.91610000     -74.65850000
S      -47.14050000     -33.69340000     -68.35990000
C      -46.64780000     -31.23660000     -72.94920000
H      -47.21300000     -30.30840000     -73.00910000
H      -47.13610000     -31.95140000     -72.38080000
C      -46.97030000     -32.07510000     -69.24670000
H      -47.89270000     -31.52000000     -68.85660000
H      -47.12100000     -32.28350000     -70.30440000
C      -45.63010000     -31.43900000     -68.94170000
H      -45.64110000     -30.41200000     -69.26290000
H      -45.61230000     -31.36850000     -67.89460000
C      -45.30580000     -30.94380000     -72.31400000
H      -45.56920000     -30.52860000     -71.37020000
H      -44.77090000     -30.18010000     -72.90390000
C      -44.43260000     -32.12140000     -72.06120000
C      -43.72480000     -32.81680000     -73.05470000
C      -43.94750000     -32.49300000     -70.75010000
H      -43.76010000     -32.56840000     -74.08950000
C      -42.88210000     -33.37580000     -70.76760000
C      -44.43900000     -32.20340000     -69.41430000
C      -43.67310000     -32.81830000     -68.49380000
S      -42.59300000     -33.95970000     -72.41050000
S      -42.41970000     -33.89760000     -69.12640000
H      -43.91300000     -32.73520000     -67.40720000
