40
Properties=species:S:1:pos:R:3 #=T CELL(abcABC):=T 1.889726e+02=T 90.00000=T Traj:=T positionsangstrom=T Step:=T 0=T Bead:=T pbc="F F F"
C      -45.74800000     -35.95910000     -71.00550000
C      -46.94090000     -35.20720000     -70.82770000
C      -47.35050000     -34.46200000     -71.94160000
C      -46.76990000     -34.58520000     -73.21510000
C      -45.72240000     -35.50260000     -73.34840000
C      -45.18490000     -36.19480000     -72.30580000
H      -45.39760000     -36.59400000     -70.14960000
H      -48.11200000     -33.71020000     -71.81850000
H      -45.35940000     -35.53630000     -74.41580000
H      -44.35210000     -36.93690000     -72.36800000
C      -47.32120000     -33.67020000     -74.34220000
H      -48.36210000     -33.43580000     -74.20010000
H      -47.28760000     -34.08880000     -75.39480000
C      -47.77980000     -35.09790000     -69.56300000
H      -48.82550000     -34.93790000     -69.67210000
H      -47.72370000     -35.99300000     -68.96240000
S      -46.51770000     -32.02080000     -74.47960000
S      -47.01910000     -33.72770000     -68.36060000
C      -46.64190000     -31.10440000     -72.91640000
H      -47.19180000     -30.17660000     -73.11880000
H      -47.31990000     -31.66500000     -72.23130000
C      -46.99320000     -32.27130000     -69.38030000
H      -47.83780000     -31.61260000     -69.45010000
H      -46.80860000     -32.60520000     -70.44880000
C      -45.78400000     -31.43340000     -68.98400000
H      -45.88660000     -30.46360000     -69.52160000
H      -45.71270000     -31.17740000     -67.86370000
C      -45.24370000     -30.71850000     -72.40870000
H      -45.33610000     -29.96430000     -71.57690000
H      -44.79370000     -30.13730000     -73.23840000
C      -44.38160000     -31.93350000     -72.06930000
C      -43.48340000     -32.42170000     -73.04370000
C      -44.21800000     -32.57110000     -70.80690000
H      -43.32540000     -32.04930000     -74.09120000
C      -43.20310000     -33.52550000     -70.84210000
C      -44.53620000     -32.22510000     -69.44170000
C      -43.74450000     -32.91620000     -68.54290000
S      -42.51430000     -33.74510000     -72.37790000
S      -42.54520000     -33.90780000     -69.29470000
H      -43.88380000     -32.69240000     -67.47660000
