40
Properties=species:S:1:pos:R:3 #=T CELL(abcABC):=T 1.889726e+02=T 90.00000=T Traj:=T positionsangstrom=T Step:=T 0=T Bead:=T pbc="F F F"
C      -44.48090000     -30.25250000     -71.62760000
C      -44.83840000     -30.35080000     -70.24790000
C      -43.98030000     -30.99750000     -69.39670000
C      -42.80260000     -31.59170000     -69.87780000
C      -42.44420000     -31.54400000     -71.23500000
C      -43.34450000     -30.87890000     -72.09870000
H      -45.11660000     -29.68800000     -72.38670000
H      -44.22680000     -31.29860000     -68.41710000
H      -41.53380000     -31.88040000     -71.63540000
H      -43.00600000     -30.75930000     -73.13840000
C      -42.09430000     -32.40230000     -68.92110000
H      -41.87280000     -31.96140000     -67.93750000
H      -41.15340000     -32.67000000     -69.28500000
C      -46.08980000     -29.68240000     -69.70690000
H      -45.99920000     -29.36510000     -68.60850000
H      -46.28770000     -28.75500000     -70.33400000
S      -42.84880000     -34.08950000     -68.66310000
S      -47.74480000     -30.63210000     -69.68560000
C      -43.45200000     -34.50950000     -70.35460000
H      -43.63620000     -33.58980000     -70.96060000
H      -42.59650000     -34.98560000     -70.91670000
C      -47.76890000     -31.70300000     -71.19280000
H      -47.58560000     -30.99850000     -71.94860000
H      -48.71520000     -32.12140000     -71.33240000
C      -46.63090000     -32.85910000     -71.02950000
H      -45.62140000     -32.40360000     -71.00340000
H      -46.72050000     -33.28680000     -70.06370000
C      -44.66530000     -35.45510000     -70.13840000
H      -45.41140000     -34.89810000     -69.55680000
H      -44.48270000     -36.36340000     -69.52130000
C      -45.19270000     -35.94200000     -71.51020000
C      -44.96390000     -37.15220000     -72.09430000
C      -46.00470000     -35.05670000     -72.27340000
H      -44.21110000     -37.87930000     -71.70870000
C      -46.31100000     -35.62750000     -73.55980000
C      -46.75040000     -33.80340000     -72.18990000
C      -47.60010000     -33.59230000     -73.23570000
S      -45.74150000     -37.25130000     -73.72450000
S      -47.46860000     -34.83010000     -74.49000000
H      -48.28010000     -32.73490000     -73.19610000
