40
Properties=species:S:1:pos:R:3 #=T CELL(abcABC):=T 1.889726e+02=T 90.00000=T Traj:=T positionsangstrom=T Step:=T 0=T Bead:=T pbc="F F F"
C      -45.02360000     -29.99410000     -73.33130000
C      -44.83760000     -30.81280000     -72.17630000
C      -45.80500000     -31.83360000     -71.90840000
C      -47.03320000     -31.87230000     -72.56620000
C      -47.23250000     -31.01810000     -73.70550000
C      -46.22090000     -30.14800000     -74.08710000
H      -44.38280000     -29.18780000     -73.66240000
H      -45.84690000     -32.40980000     -70.98280000
H      -48.15290000     -31.07520000     -74.27930000
H      -46.40920000     -29.56190000     -74.94140000
C      -48.06030000     -32.88170000     -72.17440000
H      -49.07710000     -32.65780000     -72.56950000
H      -48.14550000     -32.93680000     -71.09770000
C      -43.50590000     -30.81740000     -71.42940000
H      -43.08760000     -29.79660000     -71.34650000
H      -43.71970000     -31.25410000     -70.39170000
S      -47.92860000     -34.60370000     -72.95170000
S      -42.07750000     -31.65530000     -72.29340000
C      -46.16310000     -35.00780000     -73.28110000
H      -46.21070000     -35.42880000     -74.31970000
H      -45.53100000     -34.08450000     -73.23940000
C      -42.67840000     -33.47000000     -72.58870000
H      -42.00210000     -33.83470000     -73.37060000
H      -43.64610000     -33.48040000     -73.06390000
C      -42.65810000     -34.40480000     -71.38010000
H      -42.88130000     -35.38430000     -71.76120000
H      -41.67930000     -34.47090000     -70.91600000
C      -45.43010000     -36.08700000     -72.36960000
H      -44.35970000     -36.12910000     -72.46440000
H      -45.81460000     -36.98270000     -72.66610000
C      -45.69630000     -35.73600000     -70.89570000
C      -46.78900000     -36.27130000     -70.27150000
C      -44.92370000     -34.76180000     -70.13980000
H      -47.57870000     -36.84540000     -70.77830000
C      -45.54380000     -34.50410000     -68.91120000
C      -43.66720000     -34.10460000     -70.25780000
C      -43.48360000     -33.24320000     -69.24570000
S      -46.95400000     -35.58530000     -68.61380000
S      -44.69580000     -33.23420000     -68.03270000
H      -42.66140000     -32.46880000     -69.20500000
