40
Properties=species:S:1:pos:R:3 #=T CELL(abcABC):=T 1.889726e+02=T 90.00000=T Traj:=T positionsangstrom=T Step:=T 0=T Bead:=T pbc="F F F"
C      -46.15920000     -36.17080000     -70.72040000
C      -47.21410000     -35.21830000     -70.75140000
C      -47.55360000     -34.54090000     -71.92510000
C      -46.72570000     -34.74550000     -73.06730000
C      -45.63470000     -35.55170000     -72.94080000
C      -45.25300000     -36.24000000     -71.77810000
H      -45.90700000     -36.65060000     -69.75970000
H      -48.49130000     -33.96100000     -71.90830000
H      -44.99600000     -35.55460000     -73.82280000
H      -44.39490000     -36.88280000     -71.65380000
C      -47.07910000     -34.03890000     -74.27250000
H      -48.13310000     -33.76220000     -74.25770000
H      -46.89470000     -34.54660000     -75.21830000
C      -48.12440000     -35.08610000     -69.54500000
H      -49.05580000     -34.70890000     -69.80440000
H      -48.18850000     -36.05350000     -69.23890000
S      -46.15130000     -32.45340000     -74.34340000
S      -47.31800000     -34.31560000     -68.14110000
C      -46.85300000     -31.29630000     -73.12790000
H      -47.30150000     -30.43610000     -73.63260000
H      -47.71520000     -31.74780000     -72.62210000
C      -47.05080000     -32.62090000     -68.82540000
H      -47.60180000     -31.77240000     -68.31910000
H      -47.43120000     -32.65560000     -69.82850000
C      -45.62410000     -32.10750000     -68.84310000
H      -45.75490000     -31.04970000     -69.13820000
H      -45.39480000     -32.03930000     -67.75370000
C      -45.89170000     -30.79830000     -72.04370000
H      -46.43730000     -30.91500000     -71.08340000
H      -45.83490000     -29.70080000     -72.24620000
C      -44.55990000     -31.40430000     -71.90060000
C      -43.60930000     -31.26170000     -72.90660000
C      -44.13930000     -32.33460000     -70.94390000
H      -43.63110000     -30.59750000     -73.74550000
C      -42.86170000     -32.87060000     -71.22650000
C      -44.57630000     -32.76640000     -69.66070000
C      -43.69230000     -33.67250000     -69.06640000
S      -42.11060000     -32.18950000     -72.60360000
S      -42.32350000     -33.98410000     -70.08170000
H      -43.86130000     -34.31080000     -68.22850000
