40
Properties=species:S:1:pos:R:3 #=T CELL(abcABC):=T 1.889726e+02=T 90.00000=T Traj:=T positionsangstrom=T Step:=T 0=T Bead:=T pbc="F F F"
C      -45.36890000     -30.31840000     -73.66240000
C      -45.13000000     -30.87300000     -72.38140000
C      -46.07910000     -31.75630000     -71.79640000
C      -47.25660000     -32.01870000     -72.52040000
C      -47.52990000     -31.31080000     -73.69950000
C      -46.59830000     -30.43040000     -74.25040000
H      -44.68390000     -29.56240000     -74.01910000
H      -45.79280000     -32.23440000     -70.87380000
H      -48.42900000     -31.54770000     -74.19710000
H      -46.90350000     -29.98730000     -75.28760000
C      -48.23480000     -33.09960000     -71.97180000
H      -49.31290000     -32.79820000     -72.10810000
H      -47.96860000     -33.35530000     -70.94590000
C      -43.75200000     -30.60200000     -71.75540000
H      -43.46290000     -29.53760000     -71.84940000
H      -43.70570000     -30.90770000     -70.61060000
S      -48.02370000     -34.68020000     -72.87780000
S      -42.38170000     -31.47770000     -72.58440000
C      -46.18070000     -34.89570000     -73.31400000
H      -46.10810000     -35.47030000     -74.29150000
H      -45.75290000     -33.88000000     -73.35410000
C      -42.92690000     -33.20640000     -72.68970000
H      -42.47330000     -33.60660000     -73.54040000
H      -44.05420000     -33.06820000     -72.75120000
C      -42.61540000     -34.14030000     -71.54040000
H      -42.87350000     -35.10580000     -71.86400000
H      -41.58720000     -34.17340000     -71.24710000
C      -45.41470000     -35.87790000     -72.30260000
H      -44.40750000     -35.90410000     -72.67500000
H      -45.87160000     -36.81910000     -72.55770000
C      -45.54540000     -35.57410000     -70.83320000
C      -46.64360000     -36.01410000     -70.14990000
C      -44.66080000     -34.78900000     -70.08390000
H      -47.26180000     -36.69790000     -70.67960000
C      -45.11360000     -34.61570000     -68.74760000
C      -43.43460000     -34.06960000     -70.28010000
C      -43.03980000     -33.44540000     -69.12970000
S      -46.77090000     -35.32370000     -68.47740000
S      -44.14230000     -33.58130000     -67.78340000
H      -42.06450000     -33.01170000     -68.93510000
