40
Properties=species:S:1:pos:R:3 #=T CELL(abcABC):=T 1.889726e+02=T 90.00000=T Traj:=T positionsangstrom=T Step:=T 0=T Bead:=T pbc="F F F"
C      -45.63940000     -35.90400000     -70.96050000
C      -46.90820000     -35.26850000     -70.91960000
C      -47.30770000     -34.52370000     -72.03170000
C      -46.42890000     -34.31090000     -73.15710000
C      -45.15870000     -34.87580000     -73.06150000
C      -44.79740000     -35.72110000     -71.98630000
H      -45.38450000     -36.50790000     -70.08010000
H      -48.31690000     -34.24830000     -72.11920000
H      -44.47580000     -34.69460000     -73.97060000
H      -43.84570000     -36.15420000     -71.95000000
C      -47.03410000     -33.56130000     -74.31990000
H      -48.12270000     -33.76240000     -74.40460000
H      -46.62750000     -34.01660000     -75.23320000
C      -47.80660000     -35.43570000     -69.80520000
H      -48.89680000     -35.12840000     -70.01840000
H      -47.72330000     -36.53050000     -69.40950000
S      -46.61440000     -31.77100000     -74.45730000
S      -47.38270000     -34.27650000     -68.37130000
C      -46.67780000     -31.08470000     -72.68510000
H      -47.48040000     -30.37840000     -72.56520000
H      -46.95420000     -32.00300000     -72.09180000
C      -47.20950000     -32.76290000     -69.32220000
H      -48.18800000     -32.19250000     -69.26770000
H      -47.18480000     -32.96470000     -70.38820000
C      -46.04400000     -31.87240000     -69.01860000
H      -46.18710000     -30.88910000     -69.44590000
H      -45.93340000     -31.70930000     -67.96390000
C      -45.25550000     -30.52050000     -72.26710000
H      -45.47140000     -30.00200000     -71.30020000
H      -44.89010000     -29.74180000     -73.00120000
C      -44.16030000     -31.59680000     -72.02510000
C      -43.31760000     -32.01550000     -72.98040000
C      -44.09360000     -32.37640000     -70.84070000
H      -43.35460000     -31.66150000     -74.00170000
C      -43.08090000     -33.32340000     -70.86360000
C      -44.72570000     -32.43820000     -69.52650000
C      -44.12110000     -33.42870000     -68.76080000
S      -42.20830000     -33.27690000     -72.40270000
S      -42.86680000     -34.28890000     -69.48340000
H      -44.58880000     -33.73520000     -67.76980000
