40
Properties=species:S:1:pos:R:3 #=T CELL(abcABC):=T 1.889726e+02=T 90.00000=T Traj:=T positionsangstrom=T Step:=T 0=T Bead:=T pbc="F F F"
C      -45.46400000     -35.87880000     -71.14410000
C      -46.69310000     -35.35800000     -70.98670000
C      -47.27470000     -34.69130000     -72.09750000
C      -46.51260000     -34.46030000     -73.22520000
C      -45.23260000     -35.09500000     -73.45000000
C      -44.77550000     -35.95430000     -72.38990000
H      -45.05740000     -36.41540000     -70.25730000
H      -48.30780000     -34.35110000     -72.11720000
H      -44.68600000     -34.86580000     -74.37050000
H      -43.92230000     -36.56170000     -72.50850000
C      -47.16280000     -33.58280000     -74.31980000
H      -48.13290000     -33.22390000     -73.94210000
H      -47.24770000     -34.24840000     -75.23330000
C      -47.37000000     -35.46840000     -69.65640000
H      -48.39880000     -35.89420000     -69.77600000
H      -46.83070000     -36.19580000     -68.99590000
S      -46.10420000     -32.11240000     -74.71180000
S      -47.65020000     -33.86950000     -68.62420000
C      -46.35400000     -31.14760000     -73.18350000
H      -46.97790000     -30.36460000     -73.49580000
H      -46.90120000     -31.72770000     -72.43830000
C      -47.49690000     -32.49650000     -69.73420000
H      -48.47250000     -31.92480000     -69.69310000
H      -47.39570000     -32.84470000     -70.74970000
C      -46.31400000     -31.62590000     -69.27370000
H      -46.23780000     -30.79880000     -70.03550000
H      -46.40930000     -31.25890000     -68.30020000
C      -45.09940000     -30.65170000     -72.45760000
H      -45.41870000     -29.98300000     -71.64190000
H      -44.54620000     -30.01790000     -73.18840000
C      -44.18790000     -31.78640000     -71.98210000
C      -43.15200000     -32.32370000     -72.71500000
C      -44.23270000     -32.34670000     -70.64460000
H      -42.78550000     -32.04410000     -73.70090000
C      -43.21190000     -33.29540000     -70.54100000
C      -44.98920000     -32.28000000     -69.43830000
C      -44.52050000     -33.16000000     -68.47740000
S      -42.14730000     -33.40730000     -71.87650000
S      -43.09640000     -34.01570000     -68.96710000
H      -44.95990000     -33.29470000     -67.43760000
