40
Properties=species:S:1:pos:R:3 #=T CELL(abcABC):=T 1.889726e+02=T 90.00000=T Traj:=T positionsangstrom=T Step:=T 0=T Bead:=T pbc="F F F"
C      -45.64630000     -30.04830000     -71.11090000
C      -45.27730000     -30.43140000     -69.79050000
C      -43.93080000     -30.90560000     -69.63530000
C      -43.04270000     -30.91460000     -70.72510000
C      -43.49100000     -30.67000000     -72.02460000
C      -44.80170000     -30.19890000     -72.18420000
H      -46.70330000     -29.75330000     -71.39680000
H      -43.58010000     -31.16120000     -68.64420000
H      -42.76100000     -30.72880000     -72.82640000
H      -45.25360000     -30.10410000     -73.22400000
C      -41.72350000     -31.67510000     -70.51160000
H      -41.16400000     -31.20150000     -69.71160000
H      -41.12590000     -31.49090000     -71.42090000
C      -46.01700000     -30.40060000     -68.45380000
H      -45.29840000     -29.99590000     -67.86250000
H      -46.84950000     -29.67190000     -68.41690000
S      -41.97580000     -33.51170000     -69.98130000
S      -46.75770000     -32.07470000     -67.93950000
C      -42.88460000     -34.10070000     -71.43700000
H      -43.58120000     -33.35400000     -71.85090000
H      -42.25450000     -34.62610000     -72.22920000
C      -47.62400000     -32.62860000     -69.56060000
H      -47.89290000     -31.77230000     -70.11420000
H      -48.59040000     -33.19010000     -69.42730000
C      -46.66630000     -33.60650000     -70.30010000
H      -45.77900000     -33.05190000     -70.71420000
H      -46.20190000     -34.30160000     -69.56460000
C      -43.73730000     -35.25890000     -71.08370000
H      -44.21110000     -35.01180000     -70.18060000
H      -43.16110000     -36.14360000     -70.82840000
C      -44.74840000     -35.62690000     -72.23650000
C      -44.25450000     -36.18700000     -73.34840000
C      -46.15060000     -35.20800000     -72.29780000
H      -43.27020000     -36.45940000     -73.52940000
C      -46.75700000     -35.70120000     -73.46310000
C      -47.05650000     -34.40230000     -71.50570000
C      -48.29830000     -34.33810000     -72.11820000
S      -45.59100000     -36.41100000     -74.54150000
S      -48.45870000     -35.21110000     -73.63590000
H      -49.15800000     -33.81280000     -71.72700000
