40
Properties=species:S:1:pos:R:3 #=T CELL(abcABC):=T 1.889726e+02=T 90.00000=T Traj:=T positionsangstrom=T Step:=T 0=T Bead:=T pbc="F F F"
C      -46.04950000     -35.66440000     -70.68430000
C      -47.27900000     -35.20130000     -71.18970000
C      -47.41680000     -34.79620000     -72.52170000
C      -46.29720000     -34.72930000     -73.35020000
C      -45.03280000     -35.09780000     -72.83170000
C      -44.93630000     -35.61320000     -71.53310000
H      -45.86630000     -35.94180000     -69.56750000
H      -48.36700000     -34.38600000     -72.82270000
H      -44.16510000     -35.04070000     -73.43300000
H      -44.02590000     -36.00250000     -71.13470000
C      -46.46560000     -34.21090000     -74.76710000
H      -47.57280000     -34.17330000     -74.92200000
H      -46.01720000     -34.75460000     -75.56070000
C      -48.47030000     -35.01870000     -70.24850000
H      -49.34580000     -34.66710000     -70.72570000
H      -48.72850000     -35.91400000     -69.66530000
S      -45.64790000     -32.45050000     -74.85940000
S      -48.02420000     -33.85990000     -68.84990000
C      -46.39020000     -31.54310000     -73.38220000
H      -46.84460000     -30.71590000     -73.88060000
H      -47.06080000     -32.24620000     -72.87470000
C      -47.48650000     -32.29710000     -69.65930000
H      -48.36620000     -31.62390000     -69.59930000
H      -47.26940000     -32.53630000     -70.69510000
C      -46.24310000     -31.76050000     -68.98200000
H      -46.06020000     -30.72490000     -69.41110000
H      -46.32500000     -31.62810000     -67.92710000
C      -45.42950000     -30.96170000     -72.36790000
H      -46.00100000     -30.55970000     -71.49010000
H      -44.96770000     -30.05510000     -72.83260000
C      -44.33850000     -31.90560000     -71.88420000
C      -43.18830000     -32.00540000     -72.58670000
C      -44.18710000     -32.47750000     -70.58280000
H      -43.00800000     -31.69940000     -73.59190000
C      -42.98250000     -33.16030000     -70.51330000
C      -44.97500000     -32.48860000     -69.39380000
C      -44.41670000     -33.34440000     -68.47410000
S      -41.93790000     -32.96750000     -71.82580000
S      -42.74670000     -33.87180000     -68.94130000
H      -44.73780000     -33.43920000     -67.41470000
