40
Properties=species:S:1:pos:R:3 #=T CELL(abcABC):=T 1.889726e+02=T 90.00000=T Traj:=T positionsangstrom=T Step:=T 0=T Bead:=T pbc="F F F"
C      -45.90320000     -35.58010000     -70.61760000
C      -47.16990000     -35.10090000     -71.07890000
C      -47.34150000     -34.70400000     -72.45470000
C      -46.26070000     -34.81720000     -73.34060000
C      -45.05330000     -35.36370000     -72.94280000
C      -44.92770000     -35.79110000     -71.55430000
H      -45.65050000     -35.95270000     -69.57330000
H      -48.32750000     -34.42710000     -72.78510000
H      -44.15680000     -35.41280000     -73.56290000
H      -44.00820000     -36.20900000     -71.16420000
C      -46.23230000     -34.13570000     -74.71870000
H      -47.23170000     -33.98030000     -75.06030000
H      -45.55420000     -34.67340000     -75.47690000
C      -48.36900000     -35.14340000     -70.23260000
H      -49.28440000     -35.14570000     -70.90900000
H      -48.46610000     -36.08010000     -69.62130000
S      -45.36260000     -32.54380000     -74.64180000
S      -48.51050000     -33.73600000     -68.93140000
C      -46.34260000     -31.70540000     -73.31350000
H      -47.19770000     -31.17190000     -73.78230000
H      -46.84930000     -32.46100000     -72.69090000
C      -47.45400000     -32.44440000     -69.73600000
H      -48.07030000     -31.53180000     -69.75130000
H      -47.16260000     -32.73110000     -70.79350000
C      -46.24090000     -31.85320000     -68.93100000
H      -46.30990000     -30.81270000     -69.18720000
H      -46.40950000     -31.99750000     -67.86910000
C      -45.45640000     -30.83490000     -72.38290000
H      -46.08320000     -30.40240000     -71.60010000
H      -44.99860000     -30.00040000     -72.94900000
C      -44.30180000     -31.61890000     -71.82540000
C      -43.21050000     -31.79290000     -72.62420000
C      -44.17150000     -32.30030000     -70.55660000
H      -43.16230000     -31.30280000     -73.61500000
C      -42.99070000     -33.02330000     -70.54660000
C      -44.93030000     -32.42880000     -69.29960000
C      -44.27150000     -33.32270000     -68.46970000
S      -42.09370000     -32.96650000     -71.99840000
S      -42.78400000     -33.96470000     -69.01610000
H      -44.67810000     -33.61690000     -67.51080000
