40
Properties=species:S:1:pos:R:3 #=T CELL(abcABC):=T 1.889726e+02=T 90.00000=T Traj:=T positionsangstrom=T Step:=T 0=T Bead:=T pbc="F F F"
C      -45.93950000     -35.87520000     -70.56180000
C      -47.12470000     -35.31740000     -71.00780000
C      -47.25340000     -34.85030000     -72.35570000
C      -46.12770000     -34.85160000     -73.21130000
C      -44.91700000     -35.44080000     -72.79710000
C      -44.84660000     -35.86650000     -71.48140000
H      -45.69610000     -36.13690000     -69.55270000
H      -48.19510000     -34.35280000     -72.68630000
H      -44.04400000     -35.61580000     -73.50890000
H      -43.97100000     -36.36520000     -71.01190000
C      -46.28200000     -34.17960000     -74.60730000
H      -47.29070000     -34.14490000     -74.95010000
H      -45.74270000     -34.71360000     -75.40240000
C      -48.35920000     -35.16190000     -70.08770000
H      -49.24880000     -35.32790000     -70.68510000
H      -48.30080000     -35.96830000     -69.38240000
S      -45.47340000     -32.49170000     -74.51390000
S      -48.47920000     -33.64510000     -69.07050000
C      -46.33270000     -31.62990000     -73.20230000
H      -47.18900000     -31.03990000     -73.60240000
H      -46.82150000     -32.36890000     -72.53760000
C      -47.51720000     -32.34080000     -69.93800000
H      -48.15210000     -31.49130000     -70.16280000
H      -47.33670000     -32.73380000     -70.93620000
C      -46.29280000     -31.81400000     -69.13520000
H      -46.22230000     -30.70490000     -69.10820000
H      -46.57130000     -32.05570000     -68.03050000
C      -45.41420000     -30.70080000     -72.38630000
H      -46.03320000     -30.23940000     -71.61790000
H      -45.11540000     -29.85740000     -72.99800000
C      -44.22090000     -31.52380000     -71.84830000
C      -43.10500000     -31.59350000     -72.60250000
C      -44.18440000     -32.30980000     -70.64940000
H      -42.86820000     -31.05030000     -73.50140000
C      -43.02340000     -33.06470000     -70.58620000
C      -44.94600000     -32.49830000     -69.45140000
C      -44.36300000     -33.32290000     -68.46940000
S      -42.05390000     -32.90610000     -71.97370000
S      -42.88660000     -34.03000000     -69.14370000
H      -44.77660000     -33.60220000     -67.53650000
