40
Properties=species:S:1:pos:R:3 #=T CELL(abcABC):=T 1.889726e+02=T 90.00000=T Traj:=T positionsangstrom=T Step:=T 0=T Bead:=T pbc="F F F"
C      -46.01150000     -36.07710000     -70.48870000
C      -47.21940000     -35.41870000     -70.96290000
C      -47.17650000     -34.76000000     -72.21190000
C      -45.99770000     -34.76160000     -73.06630000
C      -44.80120000     -35.37470000     -72.53380000
C      -44.86080000     -35.95820000     -71.30270000
H      -45.95790000     -36.64610000     -69.61060000
H      -48.06530000     -34.16490000     -72.52550000
H      -43.84890000     -35.37560000     -73.10510000
H      -43.88090000     -36.41650000     -70.92330000
C      -46.16960000     -34.20980000     -74.45020000
H      -47.25580000     -34.27540000     -74.81110000
H      -45.51640000     -34.74870000     -75.10310000
C      -48.38160000     -35.25480000     -70.06670000
H      -49.31060000     -35.21850000     -70.66580000
H      -48.38620000     -35.97560000     -69.24970000
S      -45.64960000     -32.45390000     -74.69190000
S      -48.40360000     -33.62990000     -69.11030000
C      -46.40010000     -31.43630000     -73.29380000
H      -46.96230000     -30.65570000     -73.75760000
H      -46.98630000     -32.17100000     -72.72590000
C      -47.51150000     -32.21040000     -70.02280000
H      -48.33020000     -31.48790000     -70.13760000
H      -47.14730000     -32.66890000     -70.89760000
C      -46.29920000     -31.73960000     -69.25280000
H      -46.13740000     -30.73290000     -69.52020000
H      -46.47650000     -31.75850000     -68.20830000
C      -45.37420000     -30.76550000     -72.41190000
H      -45.88340000     -30.29390000     -71.56500000
H      -44.91770000     -29.90880000     -72.94300000
C      -44.20360000     -31.56310000     -71.93840000
C      -43.01560000     -31.71470000     -72.58250000
C      -44.23480000     -32.36850000     -70.71200000
H      -42.79690000     -31.48500000     -73.60480000
C      -43.04220000     -33.11010000     -70.58740000
C      -45.07860000     -32.55730000     -69.55000000
C      -44.51320000     -33.48210000     -68.67040000
S      -41.85830000     -32.71220000     -71.81660000
S      -42.98910000     -34.12080000     -69.18950000
H      -44.97760000     -33.73700000     -67.73260000
