40
Properties=species:S:1:pos:R:3 #=T CELL(abcABC):=T 1.889726e+02=T 90.00000=T Traj:=T positionsangstrom=T Step:=T 0=T Bead:=T pbc="F F F"
C      -46.06590000     -35.87420000     -70.71780000
C      -47.15970000     -35.16940000     -71.13270000
C      -47.23810000     -34.63680000     -72.43300000
C      -46.07560000     -34.74010000     -73.25020000
C      -44.92290000     -35.37860000     -72.82390000
C      -44.90190000     -35.90740000     -71.50880000
H      -46.19390000     -36.41050000     -69.69980000
H      -48.18250000     -34.14750000     -72.83920000
H      -44.10340000     -35.41860000     -73.51310000
H      -43.95570000     -36.32050000     -71.14490000
C      -46.06310000     -34.09870000     -74.59750000
H      -47.09020000     -34.08450000     -74.90810000
H      -45.50500000     -34.71280000     -75.36620000
C      -48.38250000     -35.17550000     -70.20660000
H      -49.22960000     -34.77960000     -70.70230000
H      -48.62210000     -36.12300000     -69.65960000
S      -45.36660000     -32.47030000     -74.68320000
S      -47.96710000     -33.89910000     -68.83020000
C      -46.11640000     -31.56060000     -73.24090000
H      -46.97840000     -30.93030000     -73.63340000
H      -46.42990000     -32.26400000     -72.43710000
C      -47.89970000     -32.40960000     -69.89300000
H      -48.74150000     -31.75830000     -69.70040000
H      -47.84920000     -32.62810000     -70.96900000
C      -46.59210000     -31.58360000     -69.56780000
H      -46.43250000     -30.70450000     -70.13940000
H      -46.74970000     -31.20380000     -68.53660000
C      -45.01590000     -30.60100000     -72.49010000
H      -45.63040000     -30.03280000     -71.78590000
H      -44.69250000     -29.87430000     -73.22300000
C      -43.98510000     -31.50130000     -71.86950000
C      -42.76150000     -31.69970000     -72.38660000
C      -44.25520000     -32.26320000     -70.69420000
H      -42.39190000     -31.46500000     -73.38540000
C      -43.16370000     -33.10440000     -70.47180000
C      -45.29090000     -32.31040000     -69.64280000
C      -44.98330000     -33.39600000     -68.76430000
S      -41.85470000     -32.96430000     -71.52910000
S      -43.45150000     -34.12930000     -69.09810000
H      -45.41250000     -33.59500000     -67.78310000
