40
Properties=species:S:1:pos:R:3 #=T CELL(abcABC):=T 1.889726e+02=T 90.00000=T Traj:=T positionsangstrom=T Step:=T 0=T Bead:=T pbc="F F F"
C      -45.90880000     -36.01740000     -70.78200000
C      -47.09430000     -35.34230000     -71.13920000
C      -47.26770000     -34.84190000     -72.38590000
C      -46.22270000     -34.77200000     -73.33680000
C      -44.98480000     -35.38860000     -72.99800000
C      -44.84040000     -35.93160000     -71.72120000
H      -45.73020000     -36.25020000     -69.73940000
H      -48.19570000     -34.32620000     -72.74930000
H      -44.17850000     -35.29990000     -73.74870000
H      -43.86730000     -36.38390000     -71.42090000
C      -46.37050000     -34.00400000     -74.61990000
H      -47.46400000     -33.69420000     -74.69410000
H      -46.12810000     -34.64030000     -75.40620000
C      -48.24130000     -35.13600000     -70.13930000
H      -49.12070000     -35.12490000     -70.81970000
H      -48.45590000     -36.01260000     -69.51030000
S      -45.19720000     -32.61340000     -74.74650000
S      -48.09650000     -33.81590000     -68.94460000
C      -46.07220000     -31.55370000     -73.52260000
H      -46.81400000     -30.93760000     -73.96010000
H      -46.73200000     -32.13820000     -72.91760000
C      -47.72800000     -32.27990000     -70.01430000
H      -48.68330000     -31.74770000     -69.87980000
H      -47.68460000     -32.67480000     -71.02460000
C      -46.51570000     -31.50340000     -69.54530000
H      -46.30920000     -30.61800000     -70.19450000
H      -46.73020000     -31.05440000     -68.57870000
C      -45.09450000     -30.76510000     -72.67420000
H      -45.57510000     -30.17640000     -71.94030000
H      -44.42800000     -30.02350000     -73.15930000
C      -44.13490000     -31.61010000     -71.85030000
C      -42.90740000     -31.77570000     -72.38610000
C      -44.36030000     -32.40680000     -70.64590000
H      -42.61380000     -31.44320000     -73.41180000
C      -43.20790000     -33.15960000     -70.38150000
C      -45.28730000     -32.29900000     -69.54760000
C      -44.94000000     -33.15560000     -68.50010000
S      -41.85810000     -32.83570000     -71.38450000
S      -43.37400000     -34.01510000     -68.83780000
H      -45.48100000     -33.38370000     -67.55650000
