40
Properties=species:S:1:pos:R:3 #=T CELL(abcABC):=T 1.889726e+02=T 90.00000=T Traj:=T positionsangstrom=T Step:=T 0=T Bead:=T pbc="F F F"
C      -45.92520000     -35.95870000     -70.77410000
C      -47.15090000     -35.29060000     -71.14800000
C      -47.31380000     -34.70430000     -72.42330000
C      -46.29030000     -34.82740000     -73.34390000
C      -45.07700000     -35.51190000     -72.96840000
C      -44.89530000     -36.09740000     -71.69270000
H      -45.81550000     -36.50150000     -69.90630000
H      -48.12350000     -34.09560000     -72.70670000
H      -44.21760000     -35.45650000     -73.68340000
H      -43.96220000     -36.61490000     -71.44160000
C      -46.31320000     -34.18110000     -74.69870000
H      -47.35650000     -33.80050000     -74.99960000
H      -45.98300000     -34.87730000     -75.45310000
C      -48.18830000     -35.31210000     -70.07640000
H      -49.21390000     -35.54310000     -70.47390000
H      -47.92140000     -36.05870000     -69.36720000
S      -45.17780000     -32.61220000     -74.78500000
S      -48.28420000     -33.76350000     -69.05210000
C      -46.04660000     -31.43020000     -73.61120000
H      -46.36530000     -30.67490000     -74.36560000
H      -46.80050000     -32.01160000     -73.07700000
C      -47.82610000     -32.33730000     -70.06910000
H      -48.61090000     -31.57830000     -70.31010000
H      -47.53450000     -32.80980000     -70.98430000
C      -46.57470000     -31.57690000     -69.46620000
H      -46.42380000     -30.68950000     -70.10140000
H      -46.78800000     -31.23810000     -68.44490000
C      -45.07510000     -30.75910000     -72.57200000
H      -45.76820000     -30.28240000     -71.91410000
H      -44.64380000     -29.93270000     -73.13940000
C      -44.11530000     -31.66830000     -71.88530000
C      -42.89590000     -31.96860000     -72.43080000
C      -44.21040000     -32.25250000     -70.55200000
H      -42.39860000     -31.45280000     -73.25660000
C      -43.04190000     -33.00230000     -70.20680000
C      -45.32370000     -32.37690000     -69.60770000
C      -44.88220000     -33.11980000     -68.51650000
S      -41.82880000     -32.96120000     -71.47910000
S      -43.27050000     -33.74500000     -68.63310000
H      -45.52460000     -33.46420000     -67.70180000
