40
Properties=species:S:1:pos:R:3 #=T CELL(abcABC):=T 1.889726e+02=T 90.00000=T Traj:=T positionsangstrom=T Step:=T 0=T Bead:=T pbc="F F F"
C      -46.00350000     -36.02120000     -70.78880000
C      -47.20620000     -35.42080000     -71.28660000
C      -47.20500000     -34.90460000     -72.59160000
C      -45.98330000     -34.82070000     -73.41310000
C      -44.88000000     -35.40440000     -72.83580000
C      -44.85210000     -36.01700000     -71.58290000
H      -45.89510000     -36.46650000     -69.78090000
H      -48.16480000     -34.48400000     -72.92950000
H      -43.92980000     -35.35570000     -73.35900000
H      -43.91910000     -36.49760000     -71.30470000
C      -45.93080000     -34.24910000     -74.78130000
H      -46.82620000     -34.41790000     -75.43440000
H      -45.08380000     -34.65690000     -75.38460000
C      -48.47380000     -35.20360000     -70.41830000
H      -49.33070000     -35.05030000     -71.07560000
H      -48.62970000     -36.21370000     -69.93340000
S      -45.37950000     -32.41460000     -74.78780000
S      -48.25040000     -33.92290000     -69.17230000
C      -46.16940000     -31.48120000     -73.39640000
H      -46.96410000     -30.89550000     -73.81680000
H      -46.67350000     -32.23290000     -72.80550000
C      -47.72610000     -32.36350000     -70.25590000
H      -48.68080000     -31.80720000     -70.34120000
H      -47.35490000     -32.63760000     -71.26190000
C      -46.57800000     -31.51280000     -69.54940000
H      -46.41260000     -30.54050000     -70.07200000
H      -46.90080000     -31.26520000     -68.53300000
C      -45.12240000     -30.72850000     -72.53170000
H      -45.83960000     -30.17630000     -71.91920000
H      -44.57920000     -30.01720000     -73.14830000
C      -44.09910000     -31.68000000     -71.79930000
C      -42.91720000     -31.99100000     -72.38270000
C      -44.29560000     -32.36190000     -70.51490000
H      -42.61860000     -31.88840000     -73.38060000
C      -43.23780000     -33.15510000     -70.21750000
C      -45.21610000     -32.19730000     -69.44050000
C      -44.74730000     -32.84490000     -68.27820000
S      -41.93810000     -33.12660000     -71.41180000
S      -43.19730000     -33.61350000     -68.55530000
H      -45.14690000     -32.82570000     -67.28410000
