40
Properties=species:S:1:pos:R:3 #=T CELL(abcABC):=T 1.889726e+02=T 90.00000=T Traj:=T positionsangstrom=T Step:=T 0=T Bead:=T pbc="F F F"
C      -46.26600000     -29.81120000     -70.65840000
C      -45.34570000     -30.15310000     -69.69370000
C      -44.05820000     -30.45480000     -70.13190000
C      -43.67080000     -30.50750000     -71.55350000
C      -44.68840000     -30.12490000     -72.47270000
C      -45.96380000     -29.84120000     -72.05700000
H      -47.33020000     -29.62880000     -70.34800000
H      -43.35390000     -30.67670000     -69.40030000
H      -44.36660000     -30.12210000     -73.48480000
H      -46.75560000     -29.42090000     -72.76420000
C      -42.26150000     -30.76000000     -71.95570000
H      -41.56030000     -30.15110000     -71.35920000
H      -42.08860000     -30.48450000     -73.03740000
C      -45.75240000     -30.29950000     -68.21440000
H      -44.90380000     -30.04620000     -67.59900000
H      -46.58520000     -29.63800000     -67.95160000
S      -41.71520000     -32.52670000     -71.69920000
S      -45.95080000     -32.10560000     -67.76110000
C      -43.07590000     -33.51980000     -72.49910000
H      -43.96480000     -32.90760000     -72.50770000
H      -42.88000000     -33.87980000     -73.56700000
C      -46.88770000     -33.01260000     -68.94100000
H      -47.53140000     -32.33950000     -69.42150000
H      -47.55070000     -33.67860000     -68.34690000
C      -46.09800000     -33.80610000     -70.00240000
H      -45.46200000     -33.04460000     -70.42550000
H      -45.34620000     -34.41360000     -69.47180000
C      -43.37080000     -34.79090000     -71.59220000
H      -43.62880000     -34.41090000     -70.62200000
H      -42.49140000     -35.44760000     -71.46990000
C      -44.53000000     -35.60010000     -72.25160000
C      -44.35310000     -36.53140000     -73.25840000
C      -45.96380000     -35.46940000     -71.94310000
H      -43.43240000     -36.62570000     -73.78620000
C      -46.79000000     -36.20710000     -72.85840000
C      -46.83650000     -34.69980000     -71.00710000
C      -48.12500000     -35.05740000     -71.13380000
S      -45.86340000     -37.30320000     -73.86930000
S      -48.48840000     -36.03160000     -72.52650000
H      -48.95540000     -34.50760000     -70.60130000
