40
Properties=species:S:1:pos:R:3 #=T CELL(abcABC):=T 1.889726e+02=T 90.00000=T Traj:=T positionsangstrom=T Step:=T 0=T Bead:=T pbc="F F F"
C      -46.07350000     -29.92430000     -70.55940000
C      -45.12200000     -30.31010000     -69.64910000
C      -43.83180000     -30.59470000     -70.12990000
C      -43.55720000     -30.47200000     -71.49690000
C      -44.48290000     -29.96840000     -72.38400000
C      -45.76700000     -29.72620000     -71.93670000
H      -47.12060000     -29.78930000     -70.23820000
H      -42.95140000     -30.88100000     -69.43880000
H      -44.17990000     -29.78540000     -73.41090000
H      -46.53020000     -29.28630000     -72.53890000
C      -42.12720000     -30.78140000     -71.99500000
H      -41.40160000     -30.38640000     -71.25630000
H      -41.96770000     -30.40200000     -72.95920000
C      -45.62670000     -30.55540000     -68.28280000
H      -45.07160000     -29.98970000     -67.53840000
H      -46.61680000     -30.06550000     -68.23930000
S      -41.73990000     -32.56940000     -71.89940000
S      -45.81500000     -32.26770000     -67.51110000
C      -43.28810000     -33.28820000     -72.64040000
H      -44.14940000     -32.79380000     -72.19070000
H      -43.22850000     -33.23280000     -73.69860000
C      -46.77820000     -33.20890000     -68.84800000
H      -47.67040000     -32.59020000     -69.21460000
H      -47.23780000     -34.09020000     -68.36840000
C      -45.88990000     -33.72310000     -70.04360000
H      -45.49950000     -32.90290000     -70.50740000
H      -44.95470000     -34.26640000     -69.68720000
C      -43.39740000     -34.80670000     -72.28030000
H      -43.28270000     -34.90900000     -71.15430000
H      -42.57110000     -35.29690000     -72.78880000
C      -44.69430000     -35.52630000     -72.58590000
C      -44.71620000     -36.41900000     -73.67500000
C      -46.05810000     -35.32860000     -72.10460000
H      -43.86680000     -36.71500000     -74.31820000
C      -46.96850000     -36.19960000     -72.72770000
C      -46.67030000     -34.61090000     -70.99440000
C      -47.98590000     -34.96970000     -70.82780000
S      -46.28580000     -37.10880000     -73.96780000
S      -48.58990000     -36.09160000     -72.07790000
H      -48.69940000     -34.58480000     -70.17060000
