40
Properties=species:S:1:pos:R:3 #=T CELL(abcABC):=T 1.889726e+02=T 90.00000=T Traj:=T positionsangstrom=T Step:=T 0=T Bead:=T pbc="F F F"
C      -46.10550000     -29.77900000     -70.54100000
C      -45.23880000     -30.38400000     -69.60730000
C      -43.98590000     -30.76150000     -70.06570000
C      -43.58380000     -30.51460000     -71.41820000
C      -44.37450000     -29.77350000     -72.24840000
C      -45.66740000     -29.42180000     -71.85130000
H      -47.13450000     -29.49470000     -70.28150000
H      -43.20660000     -31.16030000     -69.46420000
H      -44.06210000     -29.70330000     -73.29850000
H      -46.43790000     -28.89810000     -72.44690000
C      -42.14230000     -30.90220000     -71.82200000
H      -41.40630000     -30.50280000     -71.06320000
H      -41.99180000     -30.38190000     -72.81050000
C      -45.60830000     -30.53660000     -68.22720000
H      -44.87770000     -30.01990000     -67.59200000
H      -46.65030000     -30.19540000     -68.04420000
S      -41.89110000     -32.66570000     -71.96050000
S      -45.55570000     -32.33170000     -67.58240000
C      -43.44310000     -33.42430000     -72.67090000
H      -44.34050000     -32.80620000     -72.50060000
H      -43.32640000     -33.30430000     -73.78250000
C      -46.62790000     -33.31010000     -68.76640000
H      -47.51050000     -32.76300000     -69.01200000
H      -46.95390000     -34.12630000     -68.11810000
C      -45.82790000     -33.70510000     -70.05570000
H      -45.49770000     -32.78810000     -70.60440000
H      -44.91070000     -34.28150000     -69.74530000
C      -43.53310000     -34.82980000     -72.25870000
H      -43.46940000     -34.92090000     -71.19510000
H      -42.64870000     -35.34040000     -72.60810000
C      -44.76110000     -35.45490000     -72.74440000
C      -44.77150000     -36.28290000     -73.90660000
C      -46.03950000     -35.37210000     -72.16770000
H      -43.97330000     -36.44990000     -74.61100000
C      -46.99580000     -36.23160000     -72.70670000
C      -46.55120000     -34.63360000     -71.00220000
C      -47.83190000     -35.04050000     -70.68240000
S      -46.36680000     -36.94910000     -74.19810000
S      -48.59970000     -36.12000000     -71.89030000
H      -48.50900000     -34.56870000     -69.96050000
