40
Properties=species:S:1:pos:R:3 #=T CELL(abcABC):=T 1.889726e+02=T 90.00000=T Traj:=T positionsangstrom=T Step:=T 0=T Bead:=T pbc="F F F"
C      -43.58820000     -36.57770000     -69.33630000
C      -43.34290000     -36.16430000     -70.65500000
C      -42.75310000     -34.95300000     -70.93640000
C      -42.38380000     -34.12780000     -69.92030000
C      -42.58550000     -34.50300000     -68.57140000
C      -43.07530000     -35.77680000     -68.30730000
H      -43.90040000     -37.64740000     -69.08060000
H      -42.58650000     -34.58430000     -72.02550000
H      -42.18770000     -33.87840000     -67.82970000
H      -43.20850000     -36.07080000     -67.26340000
C      -41.87060000     -32.76970000     -70.33830000
H      -41.91170000     -32.62550000     -71.41140000
H      -40.75990000     -32.64430000     -70.10260000
C      -43.60730000     -37.16710000     -71.81360000
H      -42.67100000     -37.65050000     -72.19510000
H      -44.32510000     -37.98040000     -71.47880000
S      -42.75820000     -31.39740000     -69.43220000
S      -44.14410000     -36.48490000     -73.43030000
C      -44.49180000     -31.67850000     -69.83010000
H      -44.79920000     -32.72540000     -69.69990000
H      -45.02310000     -31.11190000     -69.05990000
C      -45.68890000     -35.62150000     -73.07300000
H      -45.88400000     -35.94710000     -72.04610000
H      -46.59050000     -35.88970000     -73.67110000
C      -45.55640000     -34.02930000     -73.12970000
H      -44.84030000     -33.70440000     -72.37210000
H      -45.12170000     -33.65270000     -74.13850000
C      -44.67220000     -31.08130000     -71.36150000
H      -44.02730000     -31.74360000     -72.01270000
H      -44.39540000     -30.03740000     -71.38420000
C      -46.13530000     -31.03850000     -71.64780000
C      -46.87450000     -29.99940000     -71.15430000
C      -46.94570000     -32.09920000     -72.10710000
H      -46.44580000     -29.04380000     -70.72770000
C      -48.32850000     -31.76100000     -71.91660000
C      -46.87150000     -33.42000000     -72.86170000
C      -48.14140000     -33.94390000     -73.02480000
S      -48.62160000     -30.19070000     -71.20710000
S      -49.51530000     -32.92290000     -72.50070000
H      -48.28760000     -34.83000000     -73.63000000
