40
Properties=species:S:1:pos:R:3 #=T CELL(abcABC):=T 1.889726e+02=T 90.00000=T Traj:=T positionsangstrom=T Step:=T 0=T Bead:=T pbc="F F F"
C      -45.05560000     -29.77770000     -69.75640000
C      -43.97020000     -30.66500000     -69.42340000
C      -43.01790000     -30.94490000     -70.40030000
C      -43.27310000     -30.53810000     -71.73340000
C      -44.30470000     -29.61390000     -72.06650000
C      -45.16770000     -29.23270000     -71.07720000
H      -45.81420000     -29.56640000     -68.98550000
H      -42.10650000     -31.52290000     -70.24510000
H      -44.49280000     -29.42620000     -73.14330000
H      -45.93630000     -28.58280000     -71.23990000
C      -42.43670000     -31.15840000     -72.82090000
H      -41.43230000     -30.75210000     -72.72530000
H      -42.79260000     -30.77330000     -73.83700000
C      -43.86780000     -31.15250000     -68.05580000
H      -42.89640000     -30.89180000     -67.58610000
H      -44.62800000     -30.69940000     -67.41420000
S      -42.23210000     -33.00840000     -72.86940000
S      -43.95730000     -33.02600000     -68.02840000
C      -44.04960000     -33.35450000     -72.86850000
H      -44.57630000     -33.06670000     -71.95420000
H      -44.53530000     -32.96020000     -73.76770000
C      -45.45000000     -33.43780000     -69.05270000
H      -45.61750000     -32.72700000     -69.84020000
H      -46.34390000     -33.40630000     -68.37710000
C      -45.35530000     -34.86650000     -69.60880000
H      -44.46850000     -34.94930000     -70.22240000
H      -45.21350000     -35.53580000     -68.73500000
C      -44.24820000     -34.91970000     -72.93200000
H      -43.85820000     -35.27840000     -71.99150000
H      -43.63970000     -35.29060000     -73.77920000
C      -45.67760000     -35.25480000     -73.07870000
C      -46.35130000     -35.38660000     -74.27810000
C      -46.60530000     -35.26970000     -71.90720000
H      -45.88730000     -35.34800000     -75.20530000
C      -47.90070000     -35.60870000     -72.34490000
C      -46.57520000     -35.18570000     -70.46370000
C      -47.80660000     -35.29940000     -69.84840000
S      -48.11560000     -35.46490000     -74.10910000
S      -48.99790000     -35.92930000     -70.98630000
H      -47.91560000     -35.63080000     -68.80400000
