40
Properties=species:S:1:pos:R:3 #=T CELL(abcABC):=T 1.889726e+02=T 90.00000=T Traj:=T positionsangstrom=T Step:=T 0=T Bead:=T pbc="F F F"
C      -44.78870000     -29.63180000     -69.76890000
C      -43.98310000     -30.80210000     -69.53260000
C      -43.14270000     -31.28360000     -70.54680000
C      -43.02490000     -30.67380000     -71.78800000
C      -43.78340000     -29.45050000     -71.99390000
C      -44.67100000     -28.98320000     -70.99480000
H      -45.36080000     -29.24320000     -68.97850000
H      -42.45250000     -32.03430000     -70.21830000
H      -43.65590000     -29.03010000     -72.99380000
H      -45.26900000     -28.04790000     -71.18520000
C      -42.13290000     -31.27590000     -72.82940000
H      -41.15830000     -31.20290000     -72.42440000
H      -42.17740000     -30.67380000     -73.74790000
C      -43.91240000     -31.45640000     -68.18720000
H      -43.07840000     -31.01990000     -67.60380000
H      -44.77370000     -31.18600000     -67.61550000
S      -42.31210000     -33.07250000     -73.19700000
S      -43.67910000     -33.26370000     -68.18390000
C      -44.11850000     -33.38390000     -73.31320000
H      -44.64060000     -32.64380000     -72.67500000
H      -44.24570000     -33.35610000     -74.40210000
C      -45.01470000     -33.67190000     -69.32430000
H      -44.70660000     -33.32860000     -70.29390000
H      -45.88760000     -33.00550000     -69.15020000
C      -45.50160000     -35.10280000     -69.34980000
H      -44.76500000     -35.84540000     -69.64800000
H      -45.78990000     -35.47970000     -68.35300000
C      -44.37720000     -34.75340000     -72.82060000
H      -44.05500000     -34.83640000     -71.80590000
H      -43.90300000     -35.46480000     -73.48770000
C      -45.89140000     -35.11880000     -72.81970000
C      -46.56110000     -35.10950000     -74.01600000
C      -46.84830000     -35.24550000     -71.75430000
H      -46.14940000     -35.03420000     -75.06560000
C      -48.13630000     -35.42110000     -72.20790000
C      -46.73420000     -35.24950000     -70.25260000
C      -47.97740000     -35.50170000     -69.71470000
S      -48.30150000     -35.26150000     -73.91230000
S      -49.26200000     -35.64440000     -70.87380000
H      -48.19160000     -35.55480000     -68.65600000
