40
Properties=species:S:1:pos:R:3 #=T CELL(abcABC):=T 1.889726e+02=T 90.00000=T Traj:=T positionsangstrom=T Step:=T 0=T Bead:=T pbc="F F F"
C      -44.23050000     -29.87050000     -69.73030000
C      -43.30290000     -30.89820000     -69.51600000
C      -42.64190000     -31.40970000     -70.69840000
C      -42.73870000     -30.85000000     -71.93890000
C      -43.67780000     -29.84800000     -72.14750000
C      -44.34250000     -29.33890000     -71.01620000
H      -44.80690000     -29.42270000     -68.93890000
H      -41.91800000     -32.27170000     -70.59910000
H      -43.78090000     -29.29880000     -73.04680000
H      -44.92400000     -28.53860000     -71.24790000
C      -41.92640000     -31.47440000     -73.08220000
H      -40.89300000     -31.66490000     -72.71460000
H      -42.01210000     -30.78790000     -73.97270000
C      -43.11240000     -31.59000000     -68.21740000
H      -42.05100000     -31.65730000     -67.94480000
H      -43.73420000     -31.08560000     -67.44000000
S      -42.53500000     -33.29840000     -73.40760000
S      -43.56470000     -33.32270000     -68.31830000
C      -44.35300000     -33.24030000     -73.00840000
H      -44.33820000     -32.80440000     -71.99860000
H      -44.92000000     -32.72830000     -73.75800000
C      -45.18890000     -33.36290000     -69.13840000
H      -45.31380000     -32.69930000     -70.04860000
H      -46.00380000     -32.96860000     -68.41820000
C      -45.39980000     -34.85120000     -69.56250000
H      -44.53690000     -35.13960000     -70.16240000
H      -45.24400000     -35.42640000     -68.63300000
C      -44.75640000     -34.74790000     -73.03540000
H      -44.25600000     -35.28620000     -72.25490000
H      -44.43670000     -35.07020000     -74.01430000
C      -46.27790000     -34.79810000     -72.93590000
C      -47.14090000     -34.41690000     -73.96970000
C      -46.97880000     -35.19620000     -71.72400000
H      -46.81810000     -34.16010000     -74.94700000
C      -48.35950000     -35.43920000     -72.05460000
C      -46.72210000     -35.27890000     -70.29120000
C      -47.83960000     -35.79050000     -69.66320000
S      -48.86300000     -34.77560000     -73.60150000
S      -49.26730000     -35.74550000     -70.63390000
H      -47.97220000     -35.74210000     -68.56910000
