40
Properties=species:S:1:pos:R:3 #=T CELL(abcABC):=T 1.889726e+02=T 90.00000=T Traj:=T positionsangstrom=T Step:=T 0=T Bead:=T pbc="F F F"
C      -43.55600000     -33.72600000     -74.98850000
C      -44.79520000     -34.20830000     -74.73390000
C      -45.89520000     -33.38140000     -74.38720000
C      -45.71930000     -31.97800000     -74.44390000
C      -44.38160000     -31.53780000     -74.63410000
C      -43.31340000     -32.35670000     -74.87440000
H      -42.78120000     -34.43290000     -75.40290000
H      -46.75920000     -33.76540000     -73.98840000
H      -44.32370000     -30.44980000     -74.79660000
H      -42.33630000     -32.04140000     -74.95900000
C      -46.78580000     -31.02100000     -74.20240000
H      -47.73440000     -31.54760000     -74.10020000
H      -46.92760000     -30.35810000     -75.00020000
C      -44.97500000     -35.73770000     -74.74810000
H      -45.40970000     -36.13200000     -75.66190000
H      -44.03820000     -36.19880000     -74.62740000
S      -46.44450000     -29.99640000     -72.70370000
S      -46.06690000     -36.36250000     -73.46370000
C      -46.58220000     -31.27160000     -71.33850000
H      -47.26940000     -31.00400000     -70.40220000
H      -47.06830000     -32.18220000     -71.78630000
C      -45.23860000     -36.23820000     -71.79730000
H      -44.25830000     -36.80130000     -71.73660000
H      -46.00770000     -36.74880000     -71.17120000
C      -45.14890000     -34.83640000     -71.33270000
H      -44.39810000     -34.19720000     -71.87670000
H      -46.10450000     -34.40830000     -71.59490000
C      -45.14270000     -31.42560000     -70.69540000
H      -44.69390000     -30.36540000     -70.59470000
H      -44.50740000     -31.90180000     -71.40970000
C      -45.12830000     -32.07760000     -69.34480000
C      -45.08770000     -31.36260000     -68.15940000
C      -45.12080000     -33.45710000     -68.99270000
H      -44.94080000     -30.29290000     -68.04790000
C      -45.10410000     -33.82720000     -67.62040000
C      -45.00620000     -34.68420000     -69.83640000
C      -44.96180000     -35.81710000     -69.02660000
S      -45.01150000     -32.34330000     -66.61850000
S      -45.07600000     -35.58320000     -67.27500000
H      -45.10760000     -36.85060000     -69.27490000
