40
Properties=species:S:1:pos:R:3 #=T CELL(abcABC):=T 1.889726e+02=T 90.00000=T Traj:=T positionsangstrom=T Step:=T 0=T Bead:=T pbc="F F F"
C      -43.53580000     -33.72810000     -74.77260000
C      -44.89510000     -34.17860000     -74.70530000
C      -45.92830000     -33.29300000     -74.62620000
C      -45.67220000     -31.89750000     -74.56870000
C      -44.35930000     -31.45840000     -74.69760000
C      -43.25000000     -32.41970000     -74.75700000
H      -42.76820000     -34.51510000     -74.77360000
H      -46.87940000     -33.64920000     -74.58700000
H      -44.13720000     -30.40620000     -74.56980000
H      -42.18860000     -32.15120000     -74.86510000
C      -46.84560000     -31.04910000     -74.23660000
H      -47.87480000     -31.53870000     -74.03600000
H      -46.97940000     -30.35080000     -75.09220000
C      -45.06630000     -35.69800000     -74.74010000
H      -45.58240000     -36.02600000     -75.69230000
H      -44.10440000     -36.28800000     -74.57810000
S      -46.55710000     -29.97030000     -72.70630000
S      -46.26070000     -36.39660000     -73.38020000
C      -46.39880000     -31.10580000     -71.26940000
H      -46.94210000     -30.56540000     -70.54900000
H      -46.86470000     -31.98190000     -71.45230000
C      -45.16100000     -36.35770000     -71.91440000
H      -44.20300000     -36.76730000     -72.22440000
H      -45.58350000     -36.96670000     -71.15620000
C      -44.99810000     -34.95130000     -71.31230000
H      -44.11400000     -34.56250000     -71.71300000
H      -45.77670000     -34.27680000     -71.71470000
C      -44.98600000     -31.46160000     -70.78870000
H      -44.44380000     -30.51360000     -70.76140000
H      -44.42760000     -32.14060000     -71.37180000
C      -45.02040000     -32.12440000     -69.41040000
C      -45.16120000     -31.39250000     -68.27180000
C      -45.01580000     -33.55390000     -68.99940000
H      -45.30590000     -30.32280000     -68.34780000
C      -44.96500000     -33.82710000     -67.60440000
C      -44.99980000     -34.84240000     -69.76290000
C      -45.06760000     -35.94040000     -68.93310000
S      -45.14760000     -32.28480000     -66.72100000
S      -44.91220000     -35.49780000     -67.16740000
H      -44.97440000     -36.98110000     -69.12480000
