40
Properties=species:S:1:pos:R:3 #=T CELL(abcABC):=T 1.889726e+02=T 90.00000=T Traj:=T positionsangstrom=T Step:=T 0=T Bead:=T pbc="F F F"
C      -45.11620000     -36.21060000     -71.88870000
C      -46.33040000     -35.75720000     -72.45490000
C      -46.28480000     -34.63210000     -73.31300000
C      -45.10000000     -34.00710000     -73.67350000
C      -43.94700000     -34.38740000     -73.02440000
C      -43.92620000     -35.54950000     -72.28220000
H      -45.13170000     -37.09330000     -71.28280000
H      -47.21020000     -34.39640000     -73.88020000
H      -42.98380000     -33.90690000     -73.25430000
H      -43.05080000     -35.82460000     -71.69980000
C      -45.11790000     -33.04230000     -74.78110000
H      -45.92950000     -33.23260000     -75.47630000
H      -44.23460000     -33.04440000     -75.41000000
C      -47.65810000     -36.25890000     -71.98240000
H      -48.47790000     -36.01670000     -72.58770000
H      -47.63010000     -37.39570000     -71.84720000
S      -45.26660000     -31.18450000     -74.26820000
S      -48.05480000     -35.58930000     -70.30020000
C      -46.43810000     -31.21860000     -72.88410000
H      -47.44360000     -30.76870000     -73.15630000
H      -46.83860000     -32.27250000     -72.66400000
C      -48.04250000     -33.79580000     -70.71270000
H      -49.15660000     -33.41230000     -70.72050000
H      -47.47360000     -33.67930000     -71.63630000
C      -47.39330000     -33.01700000     -69.63380000
H      -47.51380000     -31.94650000     -69.80470000
H      -47.96220000     -33.16270000     -68.70780000
C      -45.88580000     -30.49680000     -71.60650000
H      -46.67480000     -30.31160000     -70.92760000
H      -45.56880000     -29.44320000     -71.99780000
C      -44.78420000     -31.18910000     -70.89480000
C      -43.44930000     -30.65400000     -70.89020000
C      -44.84230000     -32.44700000     -70.11270000
H      -43.06970000     -29.82870000     -71.47320000
C      -43.63750000     -32.77920000     -69.54100000
C      -45.86200000     -33.33900000     -69.56580000
C      -45.36150000     -34.34810000     -68.85340000
S      -42.37980000     -31.66330000     -69.89640000
S      -43.63390000     -34.24330000     -68.60340000
H      -45.94530000     -35.12910000     -68.37550000
