40
Properties=species:S:1:pos:R:3 #=T CELL(abcABC):=T 1.889726e+02=T 90.00000=T Traj:=T positionsangstrom=T Step:=T 0=T Bead:=T pbc="F F F"
C      -45.05400000     -36.00740000     -71.76310000
C      -46.25400000     -35.69280000     -72.46980000
C      -46.19930000     -34.71780000     -73.47430000
C      -44.97800000     -33.97050000     -73.73970000
C      -43.88920000     -34.28140000     -72.94380000
C      -43.84560000     -35.27200000     -71.97600000
H      -45.05290000     -36.80010000     -71.03280000
H      -47.17060000     -34.52050000     -74.04150000
H      -43.01480000     -33.67460000     -73.08180000
H      -42.91960000     -35.51280000     -71.51840000
C      -44.92980000     -32.93600000     -74.85680000
H      -45.57960000     -33.15600000     -75.72260000
H      -43.92200000     -32.91620000     -75.38140000
C      -47.47910000     -36.47340000     -72.16470000
H      -48.23200000     -36.44430000     -72.96220000
H      -47.24250000     -37.48790000     -71.91490000
S      -45.20560000     -31.12050000     -74.26430000
S      -48.41000000     -35.76540000     -70.64320000
C      -46.44600000     -31.30840000     -72.76420000
H      -47.39550000     -30.92670000     -73.18510000
H      -46.50770000     -32.37500000     -72.58120000
C      -48.19940000     -33.93630000     -70.71550000
H      -49.18500000     -33.46680000     -70.74910000
H      -47.88820000     -33.73640000     -71.68920000
C      -47.40860000     -33.14640000     -69.62110000
H      -47.59130000     -32.10160000     -69.81010000
H      -47.91410000     -33.43340000     -68.66040000
C      -46.01110000     -30.59970000     -71.49290000
H      -46.81730000     -30.73040000     -70.76350000
H      -45.90520000     -29.52360000     -71.61100000
C      -44.80700000     -31.17450000     -70.82630000
C      -43.46430000     -30.68370000     -70.87990000
C      -44.85130000     -32.44150000     -70.01350000
H      -43.20160000     -29.82380000     -71.50630000
C      -43.58850000     -32.74630000     -69.52310000
C      -45.90270000     -33.31380000     -69.43780000
C      -45.37420000     -34.23780000     -68.63300000
S      -42.33060000     -31.64990000     -69.96410000
S      -43.59990000     -34.19170000     -68.51360000
H      -45.93940000     -35.00100000     -68.12970000
