40
Properties=species:S:1:pos:R:3 #=T CELL(abcABC):=T 1.889726e+02=T 90.00000=T Traj:=T positionsangstrom=T Step:=T 0=T Bead:=T pbc="F F F"
C      -44.82480000     -35.93450000     -71.92770000
C      -45.96290000     -35.51470000     -72.66780000
C      -45.84090000     -34.44710000     -73.51910000
C      -44.63150000     -33.79260000     -73.72510000
C      -43.52860000     -34.18960000     -72.95290000
C      -43.59260000     -35.31430000     -72.11130000
H      -44.91050000     -36.85790000     -71.40540000
H      -46.71560000     -34.14400000     -74.12290000
H      -42.58310000     -33.60840000     -73.20190000
H      -42.69310000     -35.66190000     -71.51290000
C      -44.66370000     -32.68250000     -74.74810000
H      -45.43880000     -32.87710000     -75.43020000
H      -43.81280000     -32.67790000     -75.34300000
C      -47.34700000     -36.13800000     -72.40380000
H      -47.98440000     -35.77560000     -73.21960000
H      -47.39420000     -37.25620000     -72.57930000
S      -44.85360000     -30.94780000     -74.04520000
S      -48.04990000     -35.89080000     -70.76960000
C      -46.48410000     -30.79700000     -73.19190000
H      -46.82870000     -29.80090000     -73.31890000
H      -47.13310000     -31.55010000     -73.61430000
C      -48.04740000     -34.01760000     -70.76440000
H      -49.07170000     -33.71450000     -71.05850000
H      -47.43270000     -33.53430000     -71.54560000
C      -47.66740000     -33.47170000     -69.35960000
H      -48.05930000     -32.46590000     -69.22190000
H      -48.04040000     -34.06900000     -68.46240000
C      -46.42260000     -30.87910000     -71.61320000
H      -47.34830000     -31.15450000     -71.21000000
H      -46.32250000     -29.82570000     -71.27870000
C      -45.29320000     -31.58610000     -70.85810000
C      -43.97690000     -31.00420000     -71.00710000
C      -45.23890000     -32.58200000     -69.91730000
H      -43.74660000     -30.31900000     -71.79850000
C      -43.95780000     -32.82700000     -69.43000000
C      -46.16070000     -33.48680000     -69.19610000
C      -45.50600000     -34.37220000     -68.39870000
S      -42.75020000     -31.74180000     -70.00820000
S      -43.72270000     -34.14850000     -68.32490000
H      -45.83010000     -35.13740000     -67.65050000
