40
Properties=species:S:1:pos:R:3 #=T CELL(abcABC):=T 1.889726e+02=T 90.00000=T Traj:=T positionsangstrom=T Step:=T 0=T Bead:=T pbc="F F F"
C      -44.23420000     -35.38830000     -71.86920000
C      -45.40140000     -35.45100000     -72.60830000
C      -45.47410000     -34.60240000     -73.71480000
C      -44.62340000     -33.52010000     -73.87190000
C      -43.46160000     -33.51270000     -72.99510000
C      -43.25510000     -34.47060000     -72.04070000
H      -44.13960000     -36.06570000     -70.98460000
H      -46.45390000     -34.58850000     -74.24910000
H      -42.70640000     -32.74320000     -73.23370000
H      -42.25740000     -34.59840000     -71.54040000
C      -44.93650000     -32.44150000     -74.93640000
H      -45.79830000     -32.72060000     -75.57490000
H      -44.04030000     -32.26480000     -75.54430000
C      -46.47640000     -36.47290000     -72.23680000
H      -47.07140000     -36.55420000     -73.18020000
H      -46.16140000     -37.49220000     -71.98560000
S      -45.30640000     -30.86460000     -74.10510000
S      -47.68090000     -35.95130000     -70.85010000
C      -46.58030000     -31.37040000     -72.84150000
H      -47.58250000     -30.96380000     -73.17710000
H      -46.68850000     -32.45730000     -72.70860000
C      -47.92670000     -34.18530000     -71.10170000
H      -48.90680000     -33.99560000     -71.56610000
H      -47.13990000     -33.87420000     -71.73740000
C      -47.90120000     -33.30270000     -69.82780000
H      -48.13390000     -32.26630000     -70.07050000
H      -48.58190000     -33.75190000     -69.03210000
C      -46.20710000     -30.71390000     -71.44290000
H      -47.12780000     -30.49970000     -70.86890000
H      -45.94250000     -29.59030000     -71.58890000
C      -45.14360000     -31.43310000     -70.69840000
C      -43.79080000     -31.07940000     -70.80080000
C      -45.33860000     -32.58870000     -69.86240000
H      -43.43330000     -30.21900000     -71.43770000
C      -44.16350000     -33.10430000     -69.37090000
C      -46.44170000     -33.34730000     -69.32980000
C      -46.08310000     -34.31380000     -68.46730000
S      -42.73590000     -32.13130000     -69.85990000
S      -44.36900000     -34.45720000     -68.23570000
H      -46.75110000     -35.00890000     -67.90630000
