40
Properties=species:S:1:pos:R:3 #=T CELL(abcABC):=T 1.889726e+02=T 90.00000=T Traj:=T positionsangstrom=T Step:=T 0=T Bead:=T pbc="F F F"
C      -42.77170000     -31.53580000     -69.04390000
C      -42.47050000     -32.84350000     -69.39760000
C      -42.12350000     -33.14410000     -70.69690000
C      -42.04630000     -32.13090000     -71.66840000
C      -42.46980000     -30.81510000     -71.34090000
C      -42.71290000     -30.49230000     -69.98820000
H      -42.98280000     -31.36300000     -68.01860000
H      -41.72900000     -34.13070000     -71.00380000
H      -42.58990000     -30.00780000     -72.06980000
H      -42.88580000     -29.44210000     -69.76630000
C      -41.73080000     -32.43650000     -73.08700000
H      -40.78700000     -33.00110000     -73.20340000
H      -41.65930000     -31.55330000     -73.73560000
C      -42.45720000     -33.96710000     -68.41220000
H      -41.44100000     -34.29880000     -68.40020000
H      -42.90810000     -33.62340000     -67.45910000
S      -43.00350000     -33.54810000     -73.95430000
S      -43.39950000     -35.40720000     -69.00360000
C      -44.46240000     -33.10360000     -72.99990000
H      -44.44760000     -33.60520000     -72.03630000
H      -44.52910000     -32.01200000     -72.93180000
C      -45.01310000     -34.62990000     -69.37690000
H      -44.77550000     -33.59440000     -69.69440000
H      -45.71600000     -34.46640000     -68.53220000
C      -45.72710000     -35.25050000     -70.60340000
H      -45.03860000     -35.09590000     -71.49770000
H      -45.93360000     -36.35040000     -70.48080000
C      -45.73900000     -33.55620000     -73.76280000
H      -45.68690000     -34.63070000     -73.73820000
H      -45.76350000     -33.19260000     -74.79380000
C      -46.98620000     -33.18330000     -73.08300000
C      -47.83530000     -32.15560000     -73.56810000
C      -47.55440000     -33.79840000     -71.86340000
H      -47.86670000     -31.77080000     -74.60520000
C      -48.88920000     -33.40780000     -71.63890000
C      -47.09270000     -34.61820000     -70.79810000
C      -48.07420000     -35.02680000     -69.91320000
S      -49.42470000     -32.20110000     -72.82920000
S      -49.56600000     -34.25040000     -70.28310000
H      -47.96440000     -35.80720000     -69.08470000
