40
Properties=species:S:1:pos:R:3 #=T CELL(abcABC):=T 1.889726e+02=T 90.00000=T Traj:=T positionsangstrom=T Step:=T 0=T Bead:=T pbc="F F F"
C      -42.95160000     -31.73260000     -69.18040000
C      -42.35050000     -32.95960000     -69.47050000
C      -41.83390000     -33.22620000     -70.76910000
C      -41.86170000     -32.25080000     -71.75580000
C      -42.34580000     -30.93020000     -71.37720000
C      -43.00780000     -30.72000000     -70.15670000
H      -43.41800000     -31.57950000     -68.20890000
H      -41.34050000     -34.18690000     -70.92090000
H      -42.24670000     -30.14480000     -72.12200000
H      -43.53270000     -29.74790000     -70.00670000
C      -41.56430000     -32.52460000     -73.20060000
H      -40.72920000     -33.22970000     -73.30110000
H      -41.29520000     -31.61040000     -73.73230000
C      -42.54540000     -34.08110000     -68.48020000
H      -41.61870000     -34.40480000     -67.90170000
H      -43.25630000     -33.65060000     -67.76370000
S      -43.01770000     -33.34890000     -73.98820000
S      -43.36310000     -35.57810000     -69.18010000
C      -44.60690000     -32.68430000     -73.27910000
H      -44.51480000     -32.65980000     -72.19310000
H      -44.61900000     -31.66240000     -73.61040000
C      -44.97710000     -34.82210000     -69.69890000
H      -44.74570000     -33.87280000     -70.33540000
H      -45.59130000     -34.47420000     -68.84140000
C      -45.89070000     -35.62700000     -70.60430000
H      -45.37550000     -35.72470000     -71.59210000
H      -46.16240000     -36.59000000     -70.18170000
C      -45.76960000     -33.61480000     -73.70290000
H      -45.50670000     -34.62300000     -73.31170000
H      -45.76140000     -33.73100000     -74.78680000
C      -47.06870000     -33.27360000     -73.08360000
C      -47.91300000     -32.28310000     -73.57000000
C      -47.62880000     -33.82500000     -71.81780000
H      -47.56730000     -31.53990000     -74.29210000
C      -48.80530000     -33.23910000     -71.37890000
C      -47.20620000     -34.78390000     -70.76180000
C      -48.13000000     -34.89160000     -69.72790000
S      -49.38190000     -32.12220000     -72.66720000
S      -49.50130000     -33.81110000     -69.91800000
H      -47.96370000     -35.52980000     -68.80970000
