40
Properties=species:S:1:pos:R:3 #=T CELL(abcABC):=T 1.889726e+02=T 90.00000=T Traj:=T positionsangstrom=T Step:=T 0=T Bead:=T pbc="F F F"
C      -44.19980000     -35.48890000     -71.97630000
C      -45.38210000     -35.64880000     -72.70130000
C      -45.77540000     -34.66220000     -73.58660000
C      -44.99920000     -33.47970000     -73.80090000
C      -43.92030000     -33.29420000     -73.03410000
C      -43.50370000     -34.29790000     -72.10680000
H      -43.96030000     -36.14320000     -71.13520000
H      -46.73000000     -34.76440000     -74.05880000
H      -43.28890000     -32.34850000     -73.10020000
H      -42.58440000     -33.98400000     -71.51550000
C      -45.45720000     -32.34010000     -74.78920000
H      -46.47970000     -32.70950000     -75.03000000
H      -44.82320000     -32.22720000     -75.67520000
C      -46.33800000     -36.78140000     -72.45060000
H      -47.03500000     -36.98080000     -73.32070000
H      -45.76030000     -37.67070000     -72.34730000
S      -45.67270000     -30.67540000     -73.99820000
S      -47.33190000     -36.59300000     -70.86630000
C      -46.94960000     -30.91290000     -72.77490000
H      -47.79280000     -30.31870000     -72.92510000
H      -47.31540000     -31.94440000     -72.81590000
C      -47.85720000     -34.85080000     -70.97170000
H      -48.97800000     -34.90030000     -71.08700000
H      -47.43950000     -34.40350000     -71.82280000
C      -47.48300000     -33.97960000     -69.73870000
H      -48.06870000     -33.03290000     -69.80520000
H      -47.97040000     -34.39160000     -68.84620000
C      -46.69420000     -30.76250000     -71.17100000
H      -47.52580000     -31.36610000     -70.70110000
H      -46.64280000     -29.67490000     -70.91250000
C      -45.37590000     -31.36840000     -70.58410000
C      -44.22530000     -30.59750000     -70.60920000
C      -45.17510000     -32.62790000     -69.92340000
H      -44.12370000     -29.68540000     -71.15990000
C      -43.90390000     -32.73950000     -69.39390000
C      -46.04740000     -33.78700000     -69.52390000
C      -45.35970000     -34.70180000     -68.75280000
S      -42.86170000     -31.42040000     -69.80420000
S      -43.66500000     -34.25630000     -68.48940000
H      -45.85190000     -35.53450000     -68.23320000
