40
Properties=species:S:1:pos:R:3 #=T CELL(abcABC):=T 1.889726e+02=T 90.00000=T Traj:=T positionsangstrom=T Step:=T 0=T Bead:=T pbc="F F F"
C      -43.99280000     -35.38140000     -72.14370000
C      -45.25470000     -35.45780000     -72.78110000
C      -45.59490000     -34.42600000     -73.63820000
C      -44.78950000     -33.27370000     -73.79650000
C      -43.56860000     -33.27490000     -73.17360000
C      -43.13740000     -34.33880000     -72.43470000
H      -43.77010000     -36.20500000     -71.43760000
H      -46.52870000     -34.50830000     -74.18490000
H      -42.88870000     -32.46720000     -73.33290000
H      -42.19910000     -34.40360000     -71.92370000
C      -45.20280000     -32.04960000     -74.51550000
H      -45.88640000     -32.26940000     -75.24230000
H      -44.36570000     -31.49130000     -74.81450000
C      -46.23910000     -36.65340000     -72.56110000
H      -47.07170000     -36.53270000     -73.22830000
H      -45.81630000     -37.65600000     -72.63070000
S      -46.16480000     -30.82730000     -73.47980000
S      -46.82040000     -36.66940000     -70.80020000
C      -47.40280000     -31.76420000     -72.49240000
H      -48.39390000     -31.72590000     -72.85950000
H      -47.04720000     -32.79940000     -72.37680000
C      -47.71400000     -35.08290000     -70.49140000
H      -48.75730000     -35.35420000     -70.55320000
H      -47.45410000     -34.41450000     -71.28410000
C      -47.22920000     -34.41890000     -69.19260000
H      -47.86760000     -33.49880000     -68.83110000
H      -47.36290000     -35.11700000     -68.40020000
C      -47.38080000     -31.25440000     -70.99870000
H      -48.17510000     -31.84580000     -70.60940000
H      -47.52910000     -30.16290000     -70.96040000
C      -46.03670000     -31.49680000     -70.33800000
C      -45.10400000     -30.50840000     -70.56150000
C      -45.42600000     -32.72500000     -69.89810000
H      -45.22500000     -29.47980000     -70.82400000
C      -43.97310000     -32.56080000     -69.83020000
C      -45.80580000     -33.94160000     -69.26440000
C      -44.76830000     -34.67040000     -68.83490000
S      -43.42160000     -30.99560000     -70.18800000
S      -43.16970000     -33.98390000     -69.12470000
H      -44.90940000     -35.65500000     -68.40540000
