40
Properties=species:S:1:pos:R:3 #=T CELL(abcABC):=T 1.889726e+02=T 90.00000=T Traj:=T positionsangstrom=T Step:=T 0=T Bead:=T pbc="F F F"
C      -43.29430000     -34.00000000     -72.93430000
C      -44.35480000     -34.92380000     -72.92480000
C      -45.60410000     -34.42460000     -73.38670000
C      -45.83020000     -33.04720000     -73.76660000
C      -44.75380000     -32.08840000     -73.62410000
C      -43.51730000     -32.62860000     -73.35190000
H      -42.27880000     -34.31850000     -72.86520000
H      -46.39450000     -35.11340000     -73.60320000
H      -44.96550000     -31.04180000     -73.82520000
H      -42.61470000     -31.95890000     -73.36120000
C      -47.20080000     -32.71240000     -74.33050000
H      -47.65340000     -33.64190000     -74.64850000
H      -47.21970000     -32.06370000     -75.22230000
C      -44.26190000     -36.44740000     -72.68780000
H      -44.84930000     -36.89460000     -73.43770000
H      -43.31160000     -36.77360000     -72.80320000
S      -48.19830000     -31.71280000     -73.16700000
S      -45.12070000     -37.09710000     -71.04150000
C      -48.00880000     -32.81000000     -71.67410000
H      -48.88990000     -33.34260000     -71.52470000
H      -47.30570000     -33.58820000     -71.89290000
C      -46.55780000     -36.01110000     -70.78500000
H      -47.51940000     -36.59890000     -70.63540000
H      -46.68930000     -35.44350000     -71.66240000
C      -46.36760000     -35.10470000     -69.55220000
H      -47.27400000     -34.52430000     -69.44520000
H      -46.29440000     -35.81090000     -68.64810000
C      -47.71860000     -32.12600000     -70.29440000
H      -48.13350000     -32.88540000     -69.63690000
H      -48.30210000     -31.19630000     -70.14950000
C      -46.27780000     -31.80130000     -70.05880000
C      -45.70810000     -30.55280000     -70.16980000
C      -45.23460000     -32.76200000     -69.71310000
H      -46.28210000     -29.64780000     -70.23100000
C      -43.97270000     -32.21400000     -69.61700000
C      -45.12760000     -34.15710000     -69.65580000
C      -43.87420000     -34.62660000     -69.25030000
S      -44.03200000     -30.51920000     -69.79680000
S      -42.63550000     -33.30780000     -69.25340000
H      -43.61200000     -35.64670000     -69.03870000
