40
Properties=species:S:1:pos:R:3 #=T CELL(abcABC):=T 1.889726e+02=T 90.00000=T Traj:=T positionsangstrom=T Step:=T 0=T Bead:=T pbc="F F F"
C      -42.02900000     -31.78070000     -69.61810000
C      -42.04260000     -32.95300000     -70.37930000
C      -42.20010000     -32.91310000     -71.78090000
C      -42.39400000     -31.74940000     -72.47500000
C      -42.41530000     -30.57470000     -71.73440000
C      -42.19040000     -30.55700000     -70.31770000
H      -41.83090000     -31.77520000     -68.61940000
H      -41.98260000     -33.88520000     -72.31010000
H      -42.40750000     -29.65570000     -72.25300000
H      -42.01310000     -29.63780000     -69.78750000
C      -42.60870000     -31.78550000     -74.01860000
H      -41.71850000     -31.85770000     -74.49720000
H      -43.18650000     -30.95210000     -74.36990000
C      -41.75720000     -34.22700000     -69.68960000
H      -40.72070000     -34.52480000     -69.87840000
H      -41.74580000     -34.08680000     -68.60060000
S      -43.62410000     -33.29130000     -74.39970000
S      -42.89160000     -35.68170000     -69.97890000
C      -45.30500000     -32.72750000     -73.93690000
H      -45.35240000     -31.81860000     -73.40010000
H      -45.87980000     -32.60860000     -74.86190000
C      -44.47910000     -34.77790000     -69.65660000
H      -44.36110000     -33.88130000     -70.25760000
H      -44.45730000     -34.47440000     -68.59060000
C      -45.75560000     -35.57550000     -69.98160000
H      -45.62640000     -36.15310000     -70.95840000
H      -45.99450000     -36.38420000     -69.25870000
C      -45.98650000     -33.82470000     -73.10890000
H      -45.25480000     -34.06800000     -72.30900000
H      -46.03750000     -34.76670000     -73.74180000
C      -47.24980000     -33.44850000     -72.43440000
C      -48.10210000     -32.50260000     -72.86370000
C      -47.64030000     -33.90020000     -71.07710000
H      -48.03830000     -31.92240000     -73.79480000
C      -48.79150000     -33.35830000     -70.67210000
C      -47.01230000     -34.78180000     -70.08820000
C      -47.94530000     -34.93240000     -69.05850000
S      -49.55150000     -32.20530000     -71.74770000
S      -49.42970000     -34.11640000     -69.17130000
H      -47.81070000     -35.79640000     -68.49570000
