40
Properties=species:S:1:pos:R:3 #=T CELL(abcABC):=T 1.889726e+02=T 90.00000=T Traj:=T positionsangstrom=T Step:=T 0=T Bead:=T pbc="F F F"
C      -46.72910000     -36.56220000     -70.71290000
C      -45.35140000     -36.75030000     -70.57090000
C      -44.70660000     -36.20820000     -69.47850000
C      -45.41500000     -35.52330000     -68.47620000
C      -46.77790000     -35.43180000     -68.60700000
C      -47.48590000     -36.00950000     -69.70070000
H      -47.27290000     -37.03330000     -71.54930000
H      -43.59000000     -36.22790000     -69.49330000
H      -47.31800000     -34.95950000     -67.70450000
H      -48.54200000     -35.77140000     -69.77330000
C      -44.75890000     -34.86390000     -67.35610000
H      -43.76160000     -35.21880000     -67.19410000
H      -45.21780000     -35.09220000     -66.42530000
C      -44.60860000     -37.43980000     -71.62080000
H      -44.10270000     -38.31740000     -71.37410000
H      -45.28590000     -37.73890000     -72.44220000
S      -44.57150000     -32.92550000     -67.53670000
S      -43.34570000     -36.24240000     -72.21120000
C      -45.72350000     -32.22940000     -68.93320000
H      -46.57120000     -32.79190000     -69.08280000
H      -46.06990000     -31.20860000     -68.52710000
C      -44.49630000     -34.91970000     -72.64090000
H      -45.27010000     -34.88850000     -71.89690000
H      -45.04950000     -35.20100000     -73.51870000
C      -43.76890000     -33.59410000     -72.94070000
H      -43.19350000     -33.25250000     -72.06430000
H      -43.02810000     -33.86730000     -73.65060000
C      -44.81200000     -31.94500000     -70.13620000
H      -44.35510000     -32.78900000     -70.62250000
H      -43.98320000     -31.33060000     -69.68610000
C      -45.44000000     -31.23030000     -71.27690000
C      -46.31640000     -30.18470000     -71.09310000
C      -45.28110000     -31.48470000     -72.68450000
H      -46.68700000     -29.80170000     -70.16260000
C      -46.08180000     -30.67980000     -73.48090000
C      -44.62650000     -32.50610000     -73.50560000
C      -44.77800000     -32.25640000     -74.86380000
S      -46.89560000     -29.46670000     -72.65260000
S      -45.85960000     -30.98560000     -75.17630000
H      -44.51480000     -33.01660000     -75.65640000
