40
Properties=species:S:1:pos:R:3 #=T CELL(abcABC):=T 1.889726e+02=T 90.00000=T Traj:=T positionsangstrom=T Step:=T 0=T Bead:=T pbc="F F F"
C      -42.35140000     -31.77830000     -70.13040000
C      -42.00100000     -33.02490000     -70.68610000
C      -42.09260000     -33.12420000     -72.12600000
C      -42.41190000     -32.00890000     -72.85860000
C      -42.65790000     -30.75330000     -72.25940000
C      -42.76250000     -30.73090000     -70.88190000
H      -42.25610000     -31.70930000     -69.00380000
H      -41.91520000     -34.08850000     -72.56570000
H      -42.88240000     -29.82280000     -72.89550000
H      -43.03750000     -29.83380000     -70.46060000
C      -42.56270000     -32.13880000     -74.36560000
H      -41.78720000     -32.61500000     -74.89110000
H      -42.65760000     -31.09820000     -74.74610000
C      -41.49850000     -34.20060000     -69.87510000
H      -40.85580000     -34.95080000     -70.43900000
H      -40.78400000     -33.73620000     -69.17170000
S      -44.11560000     -33.08240000     -74.89960000
S      -42.75560000     -35.30260000     -69.08580000
C      -45.50380000     -32.43020000     -73.92790000
H      -45.13550000     -31.47770000     -73.42040000
H      -46.40340000     -32.23570000     -74.59400000
C      -44.31240000     -34.39370000     -69.41000000
H      -44.09360000     -33.48390000     -69.96340000
H      -44.71300000     -33.97980000     -68.49360000
C      -45.37810000     -35.25970000     -70.12810000
H      -45.09090000     -35.43860000     -71.21520000
H      -45.36230000     -36.22230000     -69.74280000
C      -45.78840000     -33.36780000     -72.78330000
H      -45.01920000     -33.34720000     -71.98220000
H      -45.72110000     -34.43670000     -73.16330000
C      -47.09490000     -33.17320000     -72.07870000
C      -48.17400000     -32.40160000     -72.55290000
C      -47.43460000     -33.90250000     -70.89950000
H      -48.17440000     -32.00480000     -73.53860000
C      -48.77760000     -33.59040000     -70.49680000
C      -46.81200000     -34.75280000     -69.97550000
C      -47.64130000     -35.14310000     -68.94770000
S      -49.66520000     -32.56090000     -71.59140000
S      -49.24420000     -34.48620000     -69.08740000
H      -47.23920000     -35.71930000     -68.06870000
