40
Properties=species:S:1:pos:R:3 #=T CELL(abcABC):=T 1.889726e+02=T 90.00000=T Traj:=T positionsangstrom=T Step:=T 0=T Bead:=T pbc="F F F"
C      -42.69640000     -31.70660000     -70.34930000
C      -42.18920000     -32.91250000     -70.83720000
C      -42.18790000     -33.18120000     -72.20490000
C      -42.76640000     -32.21090000     -73.01090000
C      -43.34380000     -31.01410000     -72.51690000
C      -43.19120000     -30.74080000     -71.15880000
H      -42.59470000     -31.57100000     -69.33330000
H      -41.82080000     -34.13390000     -72.59000000
H      -43.92060000     -30.44600000     -73.16910000
H      -43.75730000     -29.86090000     -70.73360000
C      -42.77550000     -32.42780000     -74.55590000
H      -41.83460000     -32.94540000     -74.88450000
H      -42.66210000     -31.50450000     -75.02720000
C      -41.59920000     -33.88600000     -69.87750000
H      -41.05190000     -34.56430000     -70.50320000
H      -40.91880000     -33.37480000     -69.22990000
S      -44.23500000     -33.22860000     -75.29070000
S      -42.69480000     -34.85410000     -68.73020000
C      -45.49390000     -32.77000000     -74.11810000
H      -45.39460000     -31.69710000     -73.82520000
H      -46.48870000     -32.73940000     -74.61660000
C      -44.40500000     -34.30950000     -69.03150000
H      -44.48930000     -33.37740000     -69.50080000
H      -44.88270000     -34.32080000     -67.99890000
C      -45.15020000     -35.33030000     -69.90890000
H      -44.75940000     -35.32050000     -70.91330000
H      -44.91470000     -36.37280000     -69.51380000
C      -45.59880000     -33.55420000     -72.83570000
H      -44.77790000     -33.22610000     -72.13020000
H      -45.43660000     -34.61430000     -73.13250000
C      -46.91620000     -33.30090000     -72.07770000
C      -47.97930000     -32.46240000     -72.46900000
C      -47.25410000     -33.96180000     -70.82570000
H      -47.88530000     -31.64550000     -73.25050000
C      -48.55990000     -33.60160000     -70.43150000
C      -46.61870000     -34.91290000     -69.88510000
C      -47.51270000     -35.29590000     -68.86880000
S      -49.31780000     -32.39240000     -71.44600000
S      -49.11340000     -34.38490000     -68.97740000
H      -47.18020000     -35.95270000     -68.08620000
