40
Properties=species:S:1:pos:R:3 #=T CELL(abcABC):=T 1.889726e+02=T 90.00000=T Traj:=T positionsangstrom=T Step:=T 0=T Bead:=T pbc="F F F"
C      -44.04320000     -36.77770000     -70.09470000
C      -43.57920000     -36.25250000     -71.32110000
C      -42.75270000     -35.12850000     -71.21350000
C      -42.54160000     -34.46390000     -70.02630000
C      -43.11140000     -34.91990000     -68.82640000
C      -43.73340000     -36.14280000     -68.89920000
H      -44.63490000     -37.63400000     -70.16970000
H      -42.20980000     -34.85530000     -72.11120000
H      -43.06040000     -34.51290000     -67.82690000
H      -44.07910000     -36.57260000     -67.92930000
C      -41.68380000     -33.14260000     -69.96750000
H      -41.05480000     -32.96680000     -70.82050000
H      -41.07160000     -33.12090000     -69.00410000
C      -43.90450000     -36.90810000     -72.72150000
H      -43.00730000     -37.31730000     -73.16160000
H      -44.59440000     -37.84180000     -72.55060000
S      -42.79140000     -31.65150000     -69.71860000
S      -44.81560000     -35.88510000     -74.01480000
C      -43.11010000     -31.38480000     -71.56850000
H      -43.12380000     -30.26510000     -71.75390000
H      -42.26010000     -31.86900000     -72.13840000
C      -46.14430000     -35.17300000     -72.92810000
H      -45.75250000     -34.85970000     -71.95440000
H      -46.87660000     -35.94840000     -72.75420000
C      -46.69160000     -33.96510000     -73.71330000
H      -45.85810000     -33.40430000     -74.11240000
H      -47.25540000     -34.25970000     -74.59910000
C      -44.38910000     -31.97490000     -72.13240000
H      -44.45200000     -33.05390000     -71.98500000
H      -44.43230000     -31.71810000     -73.14760000
C      -45.69110000     -31.57600000     -71.50340000
C      -45.71740000     -30.67240000     -70.50400000
C      -46.97870000     -32.07530000     -71.84420000
H      -44.81880000     -30.22260000     -70.11690000
C      -47.90950000     -31.65750000     -70.91820000
C      -47.51720000     -33.02960000     -72.81710000
C      -48.86860000     -33.23220000     -72.65310000
S      -47.33100000     -30.43300000     -69.85280000
S      -49.52380000     -32.28610000     -71.31810000
H      -49.46600000     -33.86510000     -73.29100000
