40
Properties=species:S:1:pos:R:3 #=T CELL(abcABC):=T 1.889726e+02=T 90.00000=T Traj:=T positionsangstrom=T Step:=T 0=T Bead:=T pbc="F F F"
C      -46.70880000     -36.76800000     -70.75850000
C      -45.33030000     -36.80760000     -70.48860000
C      -44.83940000     -36.08400000     -69.41480000
C      -45.66960000     -35.32960000     -68.56580000
C      -47.02440000     -35.29790000     -68.91580000
C      -47.59840000     -36.06980000     -69.93520000
H      -47.10030000     -37.33500000     -71.64790000
H      -43.70750000     -36.14260000     -69.12340000
H      -47.63760000     -34.66450000     -68.30030000
H      -48.62510000     -35.94280000     -70.18590000
C      -45.03510000     -34.70110000     -67.29600000
H      -44.08130000     -35.28220000     -67.20240000
H      -45.69800000     -34.71460000     -66.36740000
C      -44.41470000     -37.51730000     -71.44070000
H      -43.80650000     -38.32140000     -70.93300000
H      -45.07980000     -37.97750000     -72.17590000
S      -44.45830000     -32.93700000     -67.50920000
S      -43.24830000     -36.37030000     -72.37370000
C      -45.58750000     -32.24410000     -68.80930000
H      -46.32920000     -33.01340000     -68.91450000
H      -46.09240000     -31.35120000     -68.45330000
C      -44.40790000     -34.89080000     -72.88480000
H      -45.13520000     -34.72050000     -72.06850000
H      -44.94150000     -35.10850000     -73.82620000
C      -43.64110000     -33.51250000     -73.02170000
H      -43.09240000     -33.26660000     -72.09310000
H      -42.86870000     -33.57110000     -73.84260000
C      -44.85400000     -32.14740000     -70.17820000
H      -44.80180000     -33.22380000     -70.42520000
H      -43.86760000     -31.66780000     -70.14290000
C      -45.56460000     -31.34910000     -71.25140000
C      -46.38770000     -30.23300000     -71.01780000
C      -45.42730000     -31.51380000     -72.60840000
H      -46.68370000     -29.89160000     -70.01380000
C      -46.11940000     -30.61520000     -73.43950000
C      -44.62480000     -32.45560000     -73.41560000
C      -44.75030000     -32.27450000     -74.78900000
S      -46.91300000     -29.42270000     -72.47540000
S      -45.74490000     -30.87670000     -75.14640000
H      -44.19650000     -32.83230000     -75.58950000
