40
Properties=species:S:1:pos:R:3 #=T CELL(abcABC):=T 1.889726e+02=T 90.00000=T Traj:=T positionsangstrom=T Step:=T 0=T Bead:=T pbc="F F F"
C      -41.83390000     -31.74050000     -70.60850000
C      -42.03470000     -33.01940000     -71.18540000
C      -42.48980000     -33.12220000     -72.47810000
C      -42.71690000     -31.96100000     -73.28310000
C      -42.50890000     -30.70790000     -72.71500000
C      -41.98100000     -30.62350000     -71.40140000
H      -41.55490000     -31.87370000     -69.61880000
H      -42.61140000     -34.07160000     -73.03980000
H      -42.85220000     -29.89690000     -73.33550000
H      -41.76870000     -29.69980000     -70.92120000
C      -43.33890000     -32.07070000     -74.57570000
H      -42.50120000     -32.11360000     -75.36370000
H      -44.06090000     -31.28270000     -74.82400000
C      -41.89390000     -34.28940000     -70.41950000
H      -42.26180000     -35.10260000     -70.96980000
H      -40.85320000     -34.45140000     -70.15380000
S      -44.25090000     -33.75790000     -74.94560000
S      -42.58050000     -34.19480000     -68.64260000
C      -45.84500000     -33.42040000     -74.08370000
H      -46.25250000     -32.59560000     -74.57850000
H      -46.46860000     -34.25500000     -74.36370000
C      -44.41840000     -33.78610000     -68.87100000
H      -44.46230000     -32.90630000     -69.49460000
H      -44.93570000     -33.55260000     -67.95210000
C      -45.13100000     -34.94760000     -69.57900000
H      -44.74780000     -35.12010000     -70.54500000
H      -44.96280000     -35.97340000     -69.09620000
C      -45.66930000     -33.26490000     -72.59840000
H      -45.28180000     -32.29180000     -72.28130000
H      -45.03060000     -34.09310000     -72.27870000
C      -47.11460000     -33.40330000     -71.99220000
C      -48.23380000     -32.66990000     -72.45980000
C      -47.36530000     -34.00560000     -70.76960000
H      -48.29110000     -32.14060000     -73.46150000
C      -48.71300000     -33.94680000     -70.47510000
C      -46.63580000     -34.62780000     -69.62650000
C      -47.41920000     -34.72110000     -68.53840000
S      -49.70690000     -33.07000000     -71.69220000
S      -49.11690000     -34.34000000     -68.85830000
H      -47.17450000     -35.15740000     -67.57730000
