40
Properties=species:S:1:pos:R:3 #=T CELL(abcABC):=T 1.889726e+02=T 90.00000=T Traj:=T positionsangstrom=T Step:=T 0=T Bead:=T pbc="F F F"
C      -44.75250000     -36.51600000     -69.88040000
C      -44.05550000     -36.40250000     -71.09850000
C      -42.97110000     -35.49640000     -71.16380000
C      -42.57010000     -34.72830000     -70.10260000
C      -43.35210000     -34.88320000     -68.94820000
C      -44.47430000     -35.70240000     -68.82020000
H      -45.68440000     -37.05150000     -69.84460000
H      -42.68190000     -35.20450000     -72.18790000
H      -43.30700000     -34.15900000     -68.15690000
H      -45.11630000     -35.55280000     -67.97710000
C      -41.46390000     -33.73560000     -70.25920000
H      -40.85580000     -34.04280000     -71.16980000
H      -40.82880000     -33.78280000     -69.40000000
C      -44.45920000     -37.28890000     -72.26160000
H      -43.61360000     -37.59790000     -72.89210000
H      -44.98860000     -38.14260000     -71.87940000
S      -42.11550000     -31.89570000     -70.42750000
S      -45.43870000     -36.27330000     -73.50280000
C      -42.83870000     -31.89280000     -72.09570000
H      -42.66660000     -30.88260000     -72.37340000
H      -42.25180000     -32.53520000     -72.77850000
C      -46.43310000     -35.04540000     -72.58690000
H      -45.85090000     -34.65600000     -71.73250000
H      -47.35100000     -35.57390000     -72.16330000
C      -46.75290000     -33.86980000     -73.50230000
H      -45.81610000     -33.40290000     -73.87480000
H      -47.36680000     -34.22380000     -74.32930000
C      -44.32200000     -32.33590000     -72.32170000
H      -44.36230000     -33.41850000     -72.11790000
H      -44.45230000     -32.10460000     -73.32480000
C      -45.41610000     -31.57020000     -71.62370000
C      -45.28900000     -30.65490000     -70.60050000
C      -46.85850000     -31.88690000     -71.82150000
H      -44.38140000     -30.47720000     -70.00570000
C      -47.69570000     -31.15670000     -71.01800000
C      -47.47970000     -32.78840000     -72.70500000
C      -48.83520000     -32.89000000     -72.44910000
S      -46.83050000     -30.11170000     -69.92590000
S      -49.35890000     -31.77560000     -71.20460000
H      -49.59130000     -33.44110000     -72.93620000
