40
Properties=species:S:1:pos:R:3 #=T CELL(abcABC):=T 1.889726e+02=T 90.00000=T Traj:=T positionsangstrom=T Step:=T 0=T Bead:=T pbc="F F F"
C      -46.58560000     -36.76010000     -70.86080000
C      -45.27350000     -36.69330000     -70.48150000
C      -44.88350000     -35.94460000     -69.34320000
C      -45.83640000     -35.28710000     -68.59190000
C      -47.18750000     -35.41230000     -69.00880000
C      -47.54690000     -36.05380000     -70.16290000
H      -46.93670000     -37.30830000     -71.73990000
H      -43.79460000     -35.95090000     -69.02180000
H      -47.87550000     -34.90150000     -68.40600000
H      -48.59440000     -36.30130000     -70.36850000
C      -45.53350000     -34.47020000     -67.31520000
H      -45.15880000     -35.08450000     -66.48780000
H      -46.50060000     -34.12990000     -67.02220000
C      -44.29600000     -37.46330000     -71.32760000
H      -43.61280000     -38.00340000     -70.66380000
H      -44.78930000     -38.15480000     -71.96690000
S      -44.44320000     -33.05440000     -67.53240000
S      -43.23260000     -36.32190000     -72.41840000
C      -45.27440000     -31.89950000     -68.70660000
H      -46.39170000     -31.79170000     -68.61770000
H      -44.78780000     -30.97010000     -68.57230000
C      -44.50650000     -35.00280000     -73.05640000
H      -45.33730000     -35.00260000     -72.36210000
H      -44.89800000     -35.20850000     -74.04870000
C      -43.75560000     -33.61370000     -73.01900000
H      -43.49190000     -33.40940000     -72.00940000
H      -42.85380000     -33.70520000     -73.60580000
C      -44.92190000     -32.41020000     -70.11450000
H      -45.06640000     -33.49080000     -70.30510000
H      -43.82760000     -32.31980000     -70.16560000
C      -45.43680000     -31.46680000     -71.20390000
C      -46.39150000     -30.43880000     -70.94690000
C      -45.25030000     -31.56380000     -72.60740000
H      -46.63530000     -30.15940000     -69.88330000
C      -45.87070000     -30.53030000     -73.33930000
C      -44.49730000     -32.40220000     -73.54600000
C      -44.73010000     -32.12470000     -74.90640000
S      -46.92670000     -29.60440000     -72.36020000
S      -45.80610000     -30.74640000     -75.08830000
H      -44.26010000     -32.57300000     -75.74950000
