40
Properties=species:S:1:pos:R:3 #=T CELL(abcABC):=T 1.889726e+02=T 90.00000=T Traj:=T positionsangstrom=T Step:=T 0=T Bead:=T pbc="F F F"
C      -44.61040000     -31.71110000     -72.89670000
C      -44.27960000     -32.95960000     -73.44670000
C      -45.26220000     -33.82980000     -73.89010000
C      -46.62110000     -33.43790000     -73.71390000
C      -46.94560000     -32.20420000     -73.19680000
C      -45.88680000     -31.30940000     -72.89110000
H      -43.79230000     -31.01970000     -72.58020000
H      -44.96630000     -34.82320000     -74.29070000
H      -47.98060000     -31.92230000     -73.15040000
H      -46.16920000     -30.28150000     -72.53770000
C      -47.66430000     -34.42970000     -73.95660000
H      -47.38920000     -35.23040000     -74.63570000
H      -48.57440000     -33.90010000     -74.33830000
C      -42.79810000     -33.37640000     -73.60730000
H      -42.77920000     -34.33270000     -74.24110000
H      -42.18900000     -32.65150000     -74.02950000
S      -48.28080000     -35.24230000     -72.34680000
S      -42.08570000     -33.75020000     -71.93940000
C      -46.78790000     -35.92120000     -71.56770000
H      -46.76580000     -37.02600000     -71.58350000
H      -45.91570000     -35.60260000     -72.14190000
C      -42.96670000     -35.27240000     -71.33790000
H      -42.30510000     -36.11070000     -71.54230000
H      -43.88460000     -35.37800000     -71.94010000
C      -43.40930000     -35.24560000     -69.88140000
H      -44.27180000     -35.99290000     -69.85230000
H      -42.57000000     -35.62910000     -69.22780000
C      -46.77060000     -35.41720000     -70.05190000
H      -46.09090000     -35.92790000     -69.36500000
H      -47.78970000     -35.64200000     -69.67880000
C      -46.56650000     -33.95670000     -69.98490000
C      -47.51210000     -32.93900000     -70.12170000
C      -45.31150000     -33.46570000     -69.54360000
H      -48.55420000     -33.00650000     -70.29460000
C      -45.42550000     -32.09490000     -69.32240000
C      -43.93000000     -33.94030000     -69.39270000
C      -43.11150000     -32.90730000     -69.13210000
S      -46.86510000     -31.38640000     -69.76230000
S      -43.92120000     -31.29530000     -69.09190000
H      -42.01150000     -33.04190000     -69.07770000
