40
Properties=species:S:1:pos:R:3 #=T CELL(abcABC):=T 1.889726e+02=T 90.00000=T Traj:=T positionsangstrom=T Step:=T 0=T Bead:=T pbc="F F F"
C      -44.43200000     -31.54390000     -72.93580000
C      -44.01480000     -32.79850000     -73.38250000
C      -45.01970000     -33.72600000     -73.75140000
C      -46.42620000     -33.44880000     -73.60740000
C      -46.74370000     -32.21150000     -73.07430000
C      -45.74310000     -31.27510000     -72.75280000
H      -43.70110000     -30.85170000     -72.69900000
H      -44.83930000     -34.78030000     -73.99040000
H      -47.75030000     -31.94940000     -72.73780000
H      -46.17610000     -30.38750000     -72.37990000
C      -47.46000000     -34.62960000     -73.93400000
H      -46.89130000     -35.43610000     -74.43880000
H      -48.27670000     -34.26130000     -74.59890000
C      -42.57460000     -33.12070000     -73.64810000
H      -42.54780000     -33.83170000     -74.44810000
H      -41.97630000     -32.20470000     -73.92710000
S      -48.18400000     -35.42500000     -72.40090000
S      -41.54210000     -33.84380000     -72.30560000
C      -46.58840000     -36.11880000     -71.76240000
H      -46.65930000     -37.21970000     -71.82370000
H      -45.75430000     -35.80630000     -72.36900000
C      -42.67180000     -35.05430000     -71.42800000
H      -42.25700000     -36.00190000     -71.38270000
H      -43.46840000     -35.13300000     -72.09630000
C      -43.06910000     -34.58220000     -70.04780000
H      -43.55650000     -35.41070000     -69.57330000
H      -42.17430000     -34.52730000     -69.48180000
C      -46.28340000     -35.73910000     -70.33740000
H      -45.32710000     -36.08980000     -70.02550000
H      -46.89200000     -36.40720000     -69.67200000
C      -46.49430000     -34.28520000     -69.84450000
C      -47.74450000     -33.69200000     -69.64870000
C      -45.40830000     -33.36390000     -69.62940000
H      -48.66730000     -34.26260000     -69.77490000
C      -45.89080000     -32.12590000     -69.26390000
C      -43.96960000     -33.32240000     -69.85150000
C      -43.46220000     -32.03380000     -69.65950000
S      -47.60520000     -32.03950000     -69.11620000
S      -44.66580000     -30.90840000     -69.06420000
H      -42.42730000     -31.75230000     -69.71960000
