40
Properties=species:S:1:pos:R:3 #=T CELL(abcABC):=T 1.889726e+02=T 90.00000=T Traj:=T positionsangstrom=T Step:=T 0=T Bead:=T pbc="F F F"
C      -44.26310000     -31.50980000     -72.84190000
C      -43.97400000     -32.69890000     -73.61710000
C      -45.04590000     -33.52600000     -74.03050000
C      -46.32540000     -33.39420000     -73.57060000
C      -46.62640000     -32.25210000     -72.85200000
C      -45.60990000     -31.30000000     -72.55170000
H      -43.53530000     -30.75020000     -72.68790000
H      -44.84700000     -34.53040000     -74.56140000
H      -47.54500000     -32.08360000     -72.27840000
H      -45.96180000     -30.40000000     -72.14580000
C      -47.37630000     -34.49800000     -73.90250000
H      -46.98540000     -35.11240000     -74.71510000
H      -48.33170000     -34.04250000     -74.18630000
C      -42.57030000     -33.13100000     -73.90420000
H      -42.62870000     -33.84320000     -74.65880000
H      -41.99140000     -32.30550000     -74.39790000
S      -47.71090000     -35.64010000     -72.47990000
S      -41.66620000     -33.63010000     -72.39810000
C      -46.11570000     -36.01450000     -71.69000000
H      -45.77600000     -37.05680000     -71.87430000
H      -45.42230000     -35.33780000     -72.09910000
C      -42.81490000     -34.69480000     -71.54980000
H      -42.45930000     -35.75920000     -71.59870000
H      -43.70330000     -34.72010000     -72.05480000
C      -43.08170000     -34.37240000     -70.00070000
H      -43.31740000     -35.24440000     -69.43900000
H      -42.13970000     -34.00160000     -69.57080000
C      -46.12840000     -35.88800000     -70.16910000
H      -45.18000000     -36.18280000     -69.74330000
H      -46.82420000     -36.59070000     -69.73040000
C      -46.43770000     -34.44270000     -69.68170000
C      -47.76480000     -34.08500000     -69.36890000
C      -45.51410000     -33.33360000     -69.53080000
H      -48.60140000     -34.76240000     -69.60060000
C      -46.17040000     -32.11640000     -69.27870000
C      -44.10380000     -33.26990000     -69.71890000
C      -43.64720000     -31.95130000     -69.57360000
S      -47.87390000     -32.36580000     -69.09650000
S      -44.95280000     -30.86330000     -69.18510000
H      -42.59750000     -31.65740000     -69.77450000
