40
Properties=species:S:1:pos:R:3 #=T CELL(abcABC):=T 1.889726e+02=T 90.00000=T Traj:=T positionsangstrom=T Step:=T 0=T Bead:=T pbc="F F F"
C      -47.75460000     -34.34270000     -74.18060000
C      -48.19130000     -33.44130000     -73.22050000
C      -48.46120000     -33.94490000     -71.93210000
C      -48.43050000     -35.32380000     -71.63970000
C      -47.91820000     -36.19210000     -72.59330000
C      -47.62350000     -35.72170000     -73.87920000
H      -47.47410000     -33.90480000     -75.16180000
H      -48.89410000     -33.20010000     -71.23910000
H      -47.90450000     -37.29730000     -72.58570000
H      -47.22970000     -36.41670000     -74.64210000
C      -48.81850000     -35.87940000     -70.27800000
H      -48.75700000     -36.98120000     -70.26210000
H      -49.89390000     -35.67240000     -70.03690000
C      -48.16470000     -31.95610000     -73.62140000
H      -48.93980000     -31.84680000     -74.41330000
H      -48.58660000     -31.38330000     -72.77690000
S      -47.92610000     -34.97120000     -68.97680000
S      -46.51460000     -31.38230000     -74.40290000
C      -46.14190000     -35.03800000     -69.42320000
H      -45.63770000     -35.35540000     -68.51410000
H      -45.75030000     -35.81270000     -70.18010000
C      -45.20370000     -31.39440000     -72.97840000
H      -45.67210000     -31.23210000     -72.04530000
H      -44.53050000     -30.50420000     -73.15070000
C      -44.36720000     -32.67700000     -72.90680000
H      -45.02200000     -33.56090000     -72.71750000
H      -43.94070000     -32.77670000     -73.91670000
C      -45.57850000     -33.67730000     -69.92820000
H      -46.11570000     -32.82730000     -69.39080000
H      -45.79180000     -33.50180000     -70.98980000
C      -44.10480000     -33.50810000     -69.66520000
C      -43.56040000     -33.66930000     -68.42730000
C      -43.15520000     -32.93770000     -70.53950000
H      -44.02960000     -34.00840000     -67.55250000
C      -41.95820000     -32.64930000     -69.90950000
C      -43.17370000     -32.50930000     -71.92550000
C      -41.99270000     -31.93110000     -72.33770000
S      -41.93660000     -32.90440000     -68.23120000
S      -40.81810000     -31.83060000     -71.03580000
H      -41.58770000     -31.57220000     -73.35340000
