40
Properties=species:S:1:pos:R:3 #=T CELL(abcABC):=T 1.889726e+02=T 90.00000=T Traj:=T positionsangstrom=T Step:=T 0=T Bead:=T pbc="F F F"
C      -45.54670000     -31.12330000     -73.55000000
C      -44.63020000     -32.13840000     -73.78230000
C      -45.17840000     -33.46130000     -74.10370000
C      -46.54650000     -33.75060000     -74.01970000
C      -47.36790000     -32.72450000     -73.64330000
C      -46.94240000     -31.41500000     -73.49900000
H      -45.27230000     -30.11150000     -73.27310000
H      -44.56890000     -34.32690000     -74.41300000
H      -48.35730000     -33.02030000     -73.29250000
H      -47.63940000     -30.61690000     -73.19840000
C      -47.09820000     -35.17490000     -74.20940000
H      -46.51670000     -35.72850000     -74.87080000
H      -48.09220000     -35.10250000     -74.59080000
C      -43.09110000     -31.86020000     -73.78650000
H      -42.45950000     -32.53160000     -74.41850000
H      -42.99370000     -30.78770000     -73.99520000
S      -47.15320000     -36.06270000     -72.59380000
S      -42.34770000     -32.04050000     -72.03420000
C      -45.39640000     -36.20960000     -72.09280000
H      -44.90600000     -37.15460000     -72.42150000
H      -44.88060000     -35.34110000     -72.42010000
C      -42.64300000     -33.77050000     -71.59670000
H      -42.01100000     -34.45310000     -72.22410000
H      -43.67930000     -33.99590000     -71.97000000
C      -42.48800000     -33.94780000     -70.10070000
H      -42.39940000     -34.97690000     -69.88370000
H      -41.50860000     -33.49960000     -69.79680000
C      -45.54710000     -36.21220000     -70.43690000
H      -44.72850000     -36.74310000     -69.97620000
H      -46.39370000     -36.85470000     -70.15810000
C      -45.91080000     -34.86620000     -69.78740000
C      -47.23670000     -34.60760000     -69.46760000
C      -45.07590000     -33.71230000     -69.48660000
H      -48.02320000     -35.30180000     -69.55620000
C      -45.90850000     -32.66170000     -68.99960000
C      -43.67390000     -33.28820000     -69.49610000
C      -43.49960000     -32.08910000     -68.80190000
S      -47.59770000     -32.93740000     -68.93680000
S      -45.05220000     -31.33460000     -68.32950000
H      -42.58580000     -31.41510000     -68.84420000
