40
Properties=species:S:1:pos:R:3 #=T CELL(abcABC):=T 1.889726e+02=T 90.00000=T Traj:=T positionsangstrom=T Step:=T 0=T Bead:=T pbc="F F F"
C      -45.59320000     -31.13030000     -73.50220000
C      -44.62940000     -32.14130000     -73.75850000
C      -45.09710000     -33.42150000     -73.92080000
C      -46.45120000     -33.77370000     -74.07370000
C      -47.38190000     -32.77110000     -73.82560000
C      -46.92780000     -31.46250000     -73.55510000
H      -45.18950000     -30.15700000     -73.34970000
H      -44.42550000     -34.17740000     -74.20240000
H      -48.39120000     -32.95840000     -74.13920000
H      -47.71470000     -30.72960000     -73.48220000
C      -46.77120000     -35.19930000     -74.28240000
H      -45.96430000     -35.87590000     -74.78750000
H      -47.73390000     -35.31530000     -74.82620000
C      -43.14830000     -31.88570000     -73.82710000
H      -42.59680000     -32.60730000     -74.39340000
H      -42.90710000     -30.91830000     -74.31150000
S      -47.25220000     -36.09010000     -72.60130000
S      -42.52490000     -31.93070000     -72.10890000
C      -45.53520000     -36.20180000     -71.94060000
H      -45.13980000     -37.22470000     -72.18880000
H      -44.86120000     -35.54860000     -72.49460000
C      -42.60580000     -33.74480000     -71.74300000
H      -41.77990000     -34.26140000     -72.10700000
H      -43.50520000     -34.17260000     -72.17220000
C      -42.71860000     -34.12260000     -70.29230000
H      -42.88720000     -35.22750000     -70.21290000
H      -41.68570000     -34.00980000     -69.76780000
C      -45.37940000     -36.04930000     -70.42400000
H      -44.26600000     -36.14810000     -70.28060000
H      -45.86300000     -36.90790000     -69.92090000
C      -45.92950000     -34.74880000     -69.81710000
C      -47.27840000     -34.49370000     -69.68260000
C      -45.14990000     -33.60800000     -69.44750000
H      -48.06830000     -35.14690000     -69.88490000
C      -45.91530000     -32.63810000     -68.88910000
C      -43.70670000     -33.35400000     -69.41780000
C      -43.40120000     -32.12530000     -68.79160000
S      -47.62660000     -33.02280000     -68.75900000
S      -44.85710000     -31.35070000     -68.24370000
H      -42.45820000     -31.65580000     -68.61030000
