40
Properties=species:S:1:pos:R:3 #=T CELL(abcABC):=T 1.889726e+02=T 90.00000=T Traj:=T positionsangstrom=T Step:=T 0=T Bead:=T pbc="F F F"
C      -47.01810000     -36.76920000     -73.09660000
C      -47.12120000     -35.41980000     -72.74570000
C      -46.38870000     -34.50970000     -73.52350000
C      -45.48340000     -34.88340000     -74.53280000
C      -45.39260000     -36.30510000     -74.85870000
C      -46.13920000     -37.21320000     -74.08960000
H      -47.67340000     -37.49880000     -72.53520000
H      -46.46840000     -33.48260000     -73.24270000
H      -44.66970000     -36.73410000     -75.52350000
H      -46.06390000     -38.30030000     -74.27390000
C      -44.78030000     -33.93510000     -75.35090000
H      -45.38300000     -33.08710000     -75.57210000
H      -44.36390000     -34.33900000     -76.26660000
C      -47.72960000     -34.96070000     -71.43930000
H      -47.52020000     -33.87610000     -71.36880000
H      -48.78110000     -35.20150000     -71.45360000
S      -43.32120000     -33.32310000     -74.41980000
S      -47.02840000     -35.89380000     -69.97650000
C      -44.06070000     -32.22690000     -73.18650000
H      -44.10840000     -31.26030000     -73.70900000
H      -45.07260000     -32.46410000     -72.93590000
C      -45.17870000     -35.77420000     -69.93600000
H      -44.74490000     -36.42110000     -70.64700000
H      -44.88250000     -36.22440000     -68.93260000
C      -44.48980000     -34.39180000     -70.08060000
H      -43.44110000     -34.37810000     -69.77560000
H      -44.52100000     -34.25180000     -71.13720000
C      -43.17670000     -32.02650000     -71.94790000
H      -42.23780000     -31.40070000     -72.03110000
H      -42.85490000     -33.02970000     -71.58800000
C      -44.01220000     -31.23580000     -70.90930000
C      -43.80040000     -29.91150000     -70.63500000
C      -44.79990000     -31.83870000     -69.82630000
H      -43.26380000     -29.16010000     -71.15640000
C      -45.35240000     -30.88200000     -68.93660000
C      -45.13020000     -33.18160000     -69.42910000
C      -45.90280000     -33.24570000     -68.29410000
S      -44.61260000     -29.31450000     -69.14500000
S      -46.20190000     -31.60840000     -67.59880000
H      -46.43160000     -34.07340000     -67.81060000
