40
Properties=species:S:1:pos:R:3 #=T CELL(abcABC):=T 1.889726e+02=T 90.00000=T Traj:=T positionsangstrom=T Step:=T 0=T Bead:=T pbc="F F F"
C      -46.68630000     -36.90410000     -73.24430000
C      -47.05610000     -35.56840000     -72.78670000
C      -46.40570000     -34.54500000     -73.43780000
C      -45.47120000     -34.69130000     -74.50340000
C      -45.31410000     -35.93980000     -75.03880000
C      -45.93520000     -37.03230000     -74.41060000
H      -47.17900000     -37.77770000     -72.98450000
H      -46.55070000     -33.48570000     -73.19200000
H      -44.50270000     -36.09190000     -75.77030000
H      -45.60980000     -37.96930000     -74.80080000
C      -44.82270000     -33.50350000     -75.04660000
H      -45.43780000     -32.66280000     -74.72550000
H      -44.71160000     -33.41180000     -76.07170000
C      -47.96950000     -35.30370000     -71.68060000
H      -48.06320000     -34.26140000     -71.42440000
H      -48.92810000     -35.72570000     -71.61290000
S      -43.17430000     -33.15350000     -74.26800000
S      -47.34970000     -35.94000000     -69.99490000
C      -43.59560000     -31.94990000     -72.92430000
H      -43.58800000     -30.89270000     -73.16730000
H      -44.65180000     -32.08020000     -72.63970000
C      -45.47880000     -35.77870000     -70.02580000
H      -45.05230000     -36.51870000     -70.69840000
H      -45.11330000     -36.05300000     -69.10400000
C      -44.86360000     -34.43910000     -70.52760000
H      -43.75650000     -34.53930000     -70.65920000
H      -45.32810000     -34.28120000     -71.53080000
C      -42.77120000     -31.89540000     -71.63430000
H      -41.90070000     -31.24000000     -71.72940000
H      -42.41130000     -32.84870000     -71.19340000
C      -43.72050000     -31.24970000     -70.58160000
C      -43.74110000     -29.88520000     -70.44130000
C      -44.74640000     -31.89120000     -69.82010000
H      -43.11980000     -29.16220000     -70.97670000
C      -45.21460000     -31.03280000     -68.83700000
C      -45.15650000     -33.29360000     -69.61000000
C      -45.98660000     -33.40890000     -68.48350000
S      -44.88560000     -29.34650000     -69.18500000
S      -46.14110000     -31.90830000     -67.59920000
H      -46.44670000     -34.29630000     -68.06280000
