40
Properties=species:S:1:pos:R:3 #=T CELL(abcABC):=T 1.889726e+02=T 90.00000=T Traj:=T positionsangstrom=T Step:=T 0=T Bead:=T pbc="F F F"
C      -46.45160000     -37.06650000     -73.57240000
C      -46.94310000     -35.80250000     -73.09400000
C      -46.44500000     -34.58240000     -73.65050000
C      -45.40410000     -34.61110000     -74.64330000
C      -45.10210000     -35.89640000     -75.21210000
C      -45.55870000     -37.06710000     -74.66110000
H      -46.83600000     -38.09200000     -73.28900000
H      -46.59550000     -33.63520000     -73.16600000
H      -44.28510000     -36.05300000     -75.98160000
H      -45.17220000     -38.00270000     -75.15050000
C      -44.81430000     -33.31500000     -75.18770000
H      -45.42330000     -32.45250000     -75.00310000
H      -44.56630000     -33.17420000     -76.26590000
C      -48.03330000     -35.78080000     -72.05030000
H      -48.76930000     -34.94480000     -72.20540000
H      -48.56990000     -36.71970000     -72.07670000
S      -43.20160000     -32.90550000     -74.29020000
S      -47.38940000     -35.42890000     -70.32870000
C      -43.88490000     -32.03400000     -72.78960000
H      -44.21290000     -30.99420000     -73.13710000
H      -44.86230000     -32.51190000     -72.52060000
C      -45.55470000     -35.86470000     -70.29390000
H      -45.29890000     -36.37600000     -71.15760000
H      -45.48740000     -36.59080000     -69.44540000
C      -44.65430000     -34.51780000     -70.17940000
H      -43.59200000     -34.73000000     -69.92470000
H      -44.89850000     -34.20480000     -71.20170000
C      -42.92480000     -31.97270000     -71.55140000
H      -42.03600000     -31.34860000     -71.81430000
H      -42.63330000     -32.97280000     -71.32080000
C      -43.76970000     -31.37550000     -70.39990000
C      -43.75190000     -30.02240000     -70.25560000
C      -44.66030000     -31.99660000     -69.47460000
H      -43.00660000     -29.30560000     -70.61420000
C      -45.26150000     -31.06970000     -68.54100000
C      -45.19060000     -33.39460000     -69.31750000
C      -46.09710000     -33.45430000     -68.30280000
S      -44.64710000     -29.49380000     -68.80110000
S      -46.46310000     -31.85300000     -67.51620000
H      -46.48960000     -34.39900000     -67.89530000
