40
Properties=species:S:1:pos:R:3 #=T CELL(abcABC):=T 1.889726e+02=T 90.00000=T Traj:=T positionsangstrom=T Step:=T 0=T Bead:=T pbc="F F F"
C      -46.23190000     -35.81200000     -74.48890000
C      -47.13320000     -34.97340000     -73.80640000
C      -47.57350000     -35.37180000     -72.50790000
C      -47.11690000     -36.57330000     -71.91980000
C      -46.32980000     -37.44200000     -72.67900000
C      -45.81870000     -37.01110000     -73.89820000
H      -45.63260000     -35.41170000     -75.34340000
H      -48.23900000     -34.68510000     -71.92330000
H      -45.96200000     -38.39610000     -72.29910000
H      -45.19020000     -37.77070000     -74.37230000
C      -47.47500000     -36.91990000     -70.50380000
H      -47.62400000     -37.97120000     -70.37980000
H      -48.36110000     -36.41650000     -70.17970000
C      -47.72250000     -33.72630000     -74.40920000
H      -48.14440000     -33.98490000     -75.40050000
H      -48.59550000     -33.51450000     -73.73380000
S      -46.00210000     -36.58520000     -69.34030000
S      -46.61370000     -32.28920000     -74.69430000
C      -44.88370000     -35.41730000     -70.23310000
H      -43.84610000     -35.39710000     -69.78610000
H      -44.83850000     -35.64630000     -71.31240000
C      -45.89960000     -31.72690000     -73.06930000
H      -46.40120000     -32.21070000     -72.20990000
H      -46.15100000     -30.71210000     -72.85130000
C      -44.39650000     -31.72040000     -72.92690000
H      -44.08460000     -32.75970000     -72.95910000
H      -43.99490000     -31.16260000     -73.75840000
C      -45.49960000     -33.98070000     -70.25180000
H      -46.46250000     -34.07290000     -69.59440000
H      -45.75800000     -33.69180000     -71.35400000
C      -44.70650000     -32.77200000     -69.67510000
C      -44.77930000     -32.75090000     -68.35460000
C      -44.09540000     -31.67190000     -70.27550000
H      -45.30740000     -33.36160000     -67.67050000
C      -43.41240000     -30.86900000     -69.32940000
C      -43.91200000     -31.09450000     -71.58840000
C      -43.18350000     -29.93600000     -71.53010000
S      -43.88230000     -31.35130000     -67.73880000
S      -42.61350000     -29.48050000     -69.95710000
H      -42.98020000     -29.20370000     -72.38400000
