40
Properties=species:S:1:pos:R:3 #=T CELL(abcABC):=T 1.889726e+02=T 90.00000=T Traj:=T positionsangstrom=T Step:=T 0=T Bead:=T pbc="F F F"
C      -46.40870000     -35.80750000     -74.50670000
C      -47.17380000     -35.01910000     -73.63190000
C      -47.59340000     -35.41130000     -72.37080000
C      -47.07490000     -36.67560000     -71.88240000
C      -46.30040000     -37.48160000     -72.76040000
C      -46.09150000     -37.09680000     -74.05570000
H      -46.52500000     -35.63420000     -75.59630000
H      -48.17570000     -34.80560000     -71.59770000
H      -46.02270000     -38.47600000     -72.54370000
H      -45.54580000     -37.77030000     -74.68570000
C      -47.28900000     -37.02090000     -70.42250000
H      -47.55350000     -38.05350000     -70.26070000
H      -48.25540000     -36.55470000     -70.00580000
C      -47.69010000     -33.69830000     -74.16740000
H      -48.19260000     -33.89250000     -75.08560000
H      -48.34750000     -33.23200000     -73.41300000
S      -45.82270000     -36.58330000     -69.44430000
S      -46.45240000     -32.37150000     -74.63080000
C      -44.80200000     -35.24960000     -70.36370000
H      -43.94160000     -35.22880000     -69.75890000
H      -44.53020000     -35.72530000     -71.24190000
C      -46.01160000     -31.55790000     -73.04510000
H      -46.57070000     -32.07180000     -72.18560000
H      -46.37200000     -30.53420000     -73.11550000
C      -44.56560000     -31.67340000     -72.86720000
H      -44.20880000     -32.67910000     -73.05640000
H      -43.98990000     -31.07890000     -73.64110000
C      -45.36710000     -33.81330000     -70.54460000
H      -46.43350000     -33.77030000     -70.49130000
H      -45.10440000     -33.57550000     -71.55770000
C      -44.80520000     -32.78520000     -69.60110000
C      -44.82750000     -32.72370000     -68.28220000
C      -44.15540000     -31.65270000     -70.23740000
H      -45.11640000     -33.48080000     -67.52360000
C      -43.49580000     -30.84610000     -69.31350000
C      -43.98900000     -31.13340000     -71.60780000
C      -43.15670000     -30.05300000     -71.61030000
S      -43.87160000     -31.35580000     -67.71210000
S      -42.72760000     -29.42580000     -69.98390000
H      -42.75500000     -29.67430000     -72.56050000
