40
Properties=species:S:1:pos:R:3 #=T CELL(abcABC):=T 1.889726e+02=T 90.00000=T Traj:=T positionsangstrom=T Step:=T 0=T Bead:=T pbc="F F F"
C      -46.76300000     -35.87820000     -74.53990000
C      -47.47390000     -34.99160000     -73.69500000
C      -47.54570000     -35.23650000     -72.31590000
C      -46.94210000     -36.44410000     -71.82800000
C      -46.34500000     -37.35890000     -72.71970000
C      -46.30670000     -37.10990000     -74.04900000
H      -46.67270000     -35.57890000     -75.53780000
H      -48.01100000     -34.54670000     -71.61420000
H      -45.75980000     -38.10430000     -72.27190000
H      -45.94240000     -37.81880000     -74.80970000
C      -46.95240000     -36.59730000     -70.33220000
H      -47.57650000     -37.45030000     -69.93330000
H      -47.40400000     -35.68870000     -69.90100000
C      -48.05910000     -33.72220000     -74.26430000
H      -48.54240000     -33.94250000     -75.22270000
H      -48.70650000     -33.35520000     -73.47420000
S      -45.26980000     -36.82210000     -69.58620000
S      -46.74190000     -32.44250000     -74.73370000
C      -44.25690000     -35.36030000     -69.99480000
H      -43.49700000     -35.31280000     -69.16970000
H      -43.68750000     -35.46130000     -70.91540000
C      -46.11060000     -31.87310000     -73.10840000
H      -46.65740000     -32.47710000     -72.37400000
H      -46.53920000     -30.87510000     -72.96850000
C      -44.64440000     -32.03980000     -72.75970000
H      -44.41550000     -33.05510000     -72.68030000
H      -44.00100000     -31.61910000     -73.60920000
C      -45.14200000     -34.11720000     -69.91050000
H      -46.05900000     -34.35560000     -69.30060000
H      -45.53540000     -33.87030000     -70.89010000
C      -44.40470000     -32.86580000     -69.51030000
C      -44.09620000     -32.79910000     -68.19120000
C      -44.24370000     -31.64100000     -70.20420000
H      -44.15740000     -33.58760000     -67.40200000
C      -43.68210000     -30.71590000     -69.41390000
C      -44.30010000     -31.20650000     -71.56620000
C      -43.84780000     -29.87120000     -71.72180000
S      -43.42100000     -31.22840000     -67.75510000
S      -43.34170000     -29.18810000     -70.23510000
H      -43.85880000     -29.36180000     -72.75910000
