40
Properties=species:S:1:pos:R:3 #=T CELL(abcABC):=T 1.889726e+02=T 90.00000=T Traj:=T positionsangstrom=T Step:=T 0=T Bead:=T pbc="F F F"
C      -46.87790000     -35.93610000     -74.66260000
C      -47.42780000     -34.95430000     -73.81370000
C      -47.44140000     -35.21290000     -72.38920000
C      -46.75010000     -36.33850000     -71.91360000
C      -46.18120000     -37.26110000     -72.77850000
C      -46.24090000     -37.05000000     -74.14750000
H      -46.77570000     -35.82550000     -75.73050000
H      -47.96360000     -34.51080000     -71.73190000
H      -45.69510000     -38.10810000     -72.38550000
H      -45.81320000     -37.78690000     -74.86560000
C      -46.84340000     -36.71870000     -70.43710000
H      -47.47430000     -37.62390000     -70.36270000
H      -47.40890000     -35.98480000     -69.92740000
C      -48.01730000     -33.80080000     -74.48200000
H      -48.25460000     -34.05190000     -75.54170000
H      -48.93900000     -33.46580000     -74.02500000
S      -45.19690000     -36.97500000     -69.65810000
S      -46.84150000     -32.39020000     -74.68430000
C      -44.37110000     -35.42470000     -70.04970000
H      -43.53360000     -35.40740000     -69.41510000
H      -44.02750000     -35.36750000     -71.11530000
C      -46.41490000     -31.76870000     -72.93710000
H      -47.06080000     -32.37390000     -72.24070000
H      -46.54780000     -30.69480000     -72.90210000
C      -44.96230000     -32.12340000     -72.59540000
H      -44.85770000     -33.22130000     -72.51640000
H      -44.35120000     -31.82100000     -73.45540000
C      -45.15920000     -34.12080000     -69.76320000
H      -45.74400000     -34.21000000     -68.90100000
H      -45.74950000     -33.84810000     -70.57870000
C      -44.30360000     -32.87990000     -69.35430000
C      -43.88030000     -32.72330000     -68.06270000
C      -44.25650000     -31.63860000     -70.02860000
H      -43.87080000     -33.60410000     -67.36710000
C      -43.63080000     -30.61560000     -69.36210000
C      -44.40240000     -31.31460000     -71.49790000
C      -43.88310000     -29.97290000     -71.72880000
S      -43.31320000     -31.09470000     -67.69820000
S      -43.41970000     -29.18000000     -70.28250000
H      -43.91380000     -29.55010000     -72.79720000
