40
Properties=species:S:1:pos:R:3 #=T CELL(abcABC):=T 1.889726e+02=T 90.00000=T Traj:=T positionsangstrom=T Step:=T 0=T Bead:=T pbc="F F F"
C      -46.91300000     -36.60950000     -71.26430000
C      -45.62910000     -36.71450000     -70.72940000
C      -45.22510000     -36.01460000     -69.59850000
C      -46.18280000     -35.25830000     -68.92050000
C      -47.48670000     -35.10270000     -69.41530000
C      -47.81640000     -35.69440000     -70.61970000
H      -47.22710000     -37.07990000     -72.23080000
H      -44.19440000     -36.11700000     -69.26490000
H      -48.12730000     -34.43700000     -68.91990000
H      -48.81770000     -35.62210000     -71.04700000
C      -45.90370000     -34.61520000     -67.59130000
H      -45.83590000     -35.35180000     -66.77490000
H      -46.88080000     -34.15100000     -67.34790000
C      -44.50470000     -37.42880000     -71.42080000
H      -43.88400000     -37.90480000     -70.63890000
H      -44.90840000     -38.26090000     -72.04630000
S      -44.39380000     -33.53720000     -67.49080000
S      -43.37870000     -36.27800000     -72.22590000
C      -45.03400000     -32.18800000     -68.65370000
H      -46.11610000     -31.86100000     -68.41130000
H      -44.48040000     -31.28960000     -68.43320000
C      -44.48540000     -34.95860000     -72.95250000
H      -45.29250000     -34.92590000     -72.22050000
H      -44.97860000     -35.37620000     -73.80530000
C      -43.59690000     -33.71480000     -73.24330000
H      -42.75380000     -33.53230000     -72.54990000
H      -43.06400000     -33.86720000     -74.17590000
C      -44.79710000     -32.54550000     -70.15080000
H      -45.26520000     -33.49690000     -70.22030000
H      -43.70990000     -32.70730000     -70.44280000
C      -45.41110000     -31.55400000     -71.09620000
C      -46.17650000     -30.48120000     -70.66040000
C      -45.23710000     -31.65900000     -72.53380000
H      -46.54470000     -30.17560000     -69.65560000
C      -45.86580000     -30.55440000     -73.19050000
C      -44.39900000     -32.45740000     -73.46910000
C      -44.39000000     -31.89070000     -74.67660000
S      -46.79980000     -29.57000000     -72.11260000
S      -45.32320000     -30.38080000     -74.86520000
H      -43.84370000     -32.21550000     -75.58780000
