40
Properties=species:S:1:pos:R:3 #=T CELL(abcABC):=T 1.889726e+02=T 90.00000=T Traj:=T positionsangstrom=T Step:=T 0=T Bead:=T pbc="F F F"
C      -46.72000000     -35.94170000     -74.87110000
C      -47.36830000     -35.06450000     -73.98070000
C      -47.34030000     -35.33950000     -72.60060000
C      -46.74820000     -36.46730000     -72.05000000
C      -46.04750000     -37.31360000     -72.93960000
C      -46.03030000     -37.01840000     -74.32230000
H      -46.89460000     -35.94260000     -75.97630000
H      -47.88810000     -34.58800000     -71.98920000
H      -45.55210000     -38.22440000     -72.56840000
H      -45.56210000     -37.61530000     -75.10340000
C      -46.78000000     -36.67080000     -70.55650000
H      -47.14570000     -37.65220000     -70.39860000
H      -47.36760000     -35.92320000     -69.91190000
C      -48.10250000     -33.74910000     -74.32660000
H      -48.74990000     -33.91280000     -75.18780000
H      -48.75820000     -33.30520000     -73.59330000
S      -45.14180000     -36.90040000     -69.74950000
S      -46.95330000     -32.34600000     -74.58860000
C      -44.45370000     -35.20180000     -69.97180000
H      -43.45310000     -35.21810000     -69.50370000
H      -44.27680000     -35.08490000     -71.05410000
C      -46.50010000     -31.81350000     -72.89330000
H      -47.28180000     -32.01590000     -72.16220000
H      -46.50790000     -30.73540000     -72.84800000
C      -45.12120000     -32.26790000     -72.44570000
H      -45.07380000     -33.38080000     -72.16020000
H      -44.53310000     -32.23380000     -73.36960000
C      -45.28210000     -34.04900000     -69.45300000
H      -45.79660000     -34.41520000     -68.52860000
H      -46.12930000     -33.90000000     -70.26650000
C      -44.41360000     -32.82810000     -69.16730000
C      -43.93200000     -32.58010000     -67.93510000
C      -44.20100000     -31.74040000     -70.00110000
H      -44.02150000     -33.31730000     -67.10020000
C      -43.56160000     -30.68130000     -69.35260000
C      -44.55510000     -31.39960000     -71.35300000
C      -44.15580000     -30.03930000     -71.65780000
S      -43.16890000     -31.02940000     -67.71370000
S      -43.36410000     -29.26070000     -70.36460000
H      -44.33810000     -29.57430000     -72.66650000
