40
Properties=species:S:1:pos:R:3 #=T CELL(abcABC):=T 1.889726e+02=T 90.00000=T Traj:=T positionsangstrom=T Step:=T 0=T Bead:=T pbc="F F F"
C      -45.51140000     -36.72770000     -73.34420000
C      -46.62700000     -35.83870000     -73.53770000
C      -46.39950000     -34.57020000     -74.14280000
C      -45.14150000     -34.21490000     -74.58610000
C      -44.06330000     -35.08720000     -74.37620000
C      -44.22180000     -36.27910000     -73.62940000
H      -45.68990000     -37.61100000     -72.79980000
H      -47.26160000     -33.88420000     -74.12810000
H      -43.03740000     -34.84710000     -74.62280000
H      -43.39230000     -36.91550000     -73.42890000
C      -45.04510000     -32.79360000     -75.30820000
H      -46.06540000     -32.30250000     -75.35060000
H      -44.62320000     -32.94750000     -76.31740000
C      -47.98120000     -36.14030000     -72.86060000
H      -48.70140000     -35.46680000     -73.28970000
H      -48.37290000     -37.11550000     -73.12450000
S      -43.92820000     -31.51920000     -74.49410000
S      -47.99580000     -35.92280000     -70.93120000
C      -44.35310000     -31.45550000     -72.63780000
H      -44.43340000     -30.41270000     -72.31500000
H      -45.34810000     -31.86130000     -72.55900000
C      -46.26040000     -35.94610000     -70.34630000
H      -45.67040000     -36.79170000     -70.80150000
H      -46.37020000     -36.12680000     -69.27620000
C      -45.41870000     -34.56730000     -70.53240000
H      -44.42660000     -34.89320000     -70.55300000
H      -45.74320000     -34.26790000     -71.50020000
C      -43.44850000     -32.25210000     -71.73660000
H      -42.32650000     -32.08250000     -71.91910000
H      -43.68010000     -33.31980000     -71.73450000
C      -43.67690000     -31.76020000     -70.29770000
C      -43.18660000     -30.61440000     -69.76270000
C      -44.68280000     -32.41520000     -69.45610000
H      -42.50350000     -29.89320000     -70.20670000
C      -44.85210000     -31.71130000     -68.28280000
C      -45.61670000     -33.52460000     -69.53380000
C      -46.45460000     -33.59520000     -68.42330000
S      -43.98520000     -30.23330000     -68.19040000
S      -46.31150000     -32.17340000     -67.46590000
H      -47.15340000     -34.37870000     -68.17760000
