40
Properties=species:S:1:pos:R:3 #=T CELL(abcABC):=T 1.889726e+02=T 90.00000=T Traj:=T positionsangstrom=T Step:=T 0=T Bead:=T pbc="F F F"
C      -45.55450000     -36.67980000     -73.51760000
C      -46.61090000     -35.73740000     -73.36420000
C      -46.43750000     -34.44190000     -73.85800000
C      -45.32670000     -34.10580000     -74.65500000
C      -44.27820000     -34.99230000     -74.75940000
C      -44.39040000     -36.27880000     -74.25790000
H      -45.66230000     -37.68330000     -73.18710000
H      -47.26740000     -33.77200000     -73.70100000
H      -43.30230000     -34.67050000     -75.18740000
H      -43.57330000     -36.94180000     -74.26410000
C      -45.08460000     -32.74770000     -75.28120000
H      -45.97760000     -32.17130000     -75.15520000
H      -44.90400000     -32.79150000     -76.37820000
C      -47.83770000     -36.16560000     -72.72890000
H      -48.69560000     -35.78150000     -73.28090000
H      -47.86270000     -37.28770000     -72.71220000
S      -43.74510000     -31.76090000     -74.49430000
S      -48.02160000     -35.65910000     -70.89750000
C      -44.47090000     -31.71800000     -72.79660000
H      -44.64850000     -30.67520000     -72.59360000
H      -45.42620000     -32.27950000     -72.74800000
C      -46.24830000     -35.85540000     -70.38210000
H      -45.81370000     -36.57980000     -71.01370000
H      -46.26030000     -36.41340000     -69.42860000
C      -45.42980000     -34.59080000     -70.52210000
H      -44.30070000     -34.76810000     -70.44040000
H      -45.58670000     -34.08260000     -71.52680000
C      -43.44980000     -32.13760000     -71.72010000
H      -42.57970000     -31.58760000     -72.06200000
H      -43.36060000     -33.23850000     -71.80240000
C      -43.74280000     -31.71420000     -70.30820000
C      -43.20460000     -30.64670000     -69.67060000
C      -44.80140000     -32.32260000     -69.46310000
H      -42.42990000     -30.03250000     -70.04750000
C      -45.02480000     -31.61010000     -68.28250000
C      -45.60970000     -33.49610000     -69.50610000
C      -46.42840000     -33.68300000     -68.40160000
S      -43.91790000     -30.25790000     -68.15380000
S      -46.16590000     -32.38140000     -67.23180000
H      -47.12970000     -34.45200000     -68.13890000
