40
Properties=species:S:1:pos:R:3 #=T CELL(abcABC):=T 1.889726e+02=T 90.00000=T Traj:=T positionsangstrom=T Step:=T 0=T Bead:=T pbc="F F F"
C      -46.43720000     -36.55510000     -74.19730000
C      -46.93800000     -35.42050000     -73.60100000
C      -46.44550000     -34.16190000     -73.86310000
C      -45.48690000     -33.93270000     -74.87180000
C      -45.03630000     -35.05940000     -75.50860000
C      -45.43870000     -36.33150000     -75.12610000
H      -46.73920000     -37.56530000     -73.92270000
H      -46.64140000     -33.32410000     -73.20980000
H      -44.37000000     -34.93580000     -76.40230000
H      -44.99410000     -37.27470000     -75.53450000
C      -44.97890000     -32.57520000     -75.22940000
H      -45.64630000     -31.75760000     -75.13040000
H      -44.66980000     -32.71090000     -76.30100000
C      -48.07880000     -35.68110000     -72.53350000
H      -48.96790000     -35.05630000     -72.79270000
H      -48.46960000     -36.67210000     -72.51610000
S      -43.45230000     -32.09370000     -74.21360000
S      -47.61840000     -35.03230000     -70.89570000
C      -44.20820000     -31.82250000     -72.63670000
H      -44.80410000     -30.92160000     -72.64610000
H      -44.94390000     -32.57490000     -72.36330000
C      -46.02210000     -35.87400000     -70.61400000
H      -45.94360000     -36.55660000     -71.44750000
H      -46.11610000     -36.51550000     -69.69960000
C      -44.84230000     -34.87070000     -70.43690000
H      -43.90480000     -35.25860000     -70.15580000
H      -44.59920000     -34.43330000     -71.37050000
C      -43.13160000     -31.91510000     -71.48750000
H      -42.40620000     -31.23960000     -71.77240000
H      -42.63690000     -32.84690000     -71.70350000
C      -43.70770000     -31.66780000     -70.15180000
C      -43.44960000     -30.48950000     -69.57030000
C      -44.60350000     -32.48230000     -69.31580000
H      -42.83510000     -29.74170000     -69.96400000
C      -44.97370000     -31.85930000     -68.13500000
C      -45.17980000     -33.84920000     -69.37480000
C      -45.93770000     -34.11570000     -68.25390000
S      -44.28850000     -30.22800000     -67.96380000
S      -46.12050000     -32.82520000     -67.12110000
H      -46.38720000     -35.11190000     -68.22750000
