40
Properties=species:S:1:pos:R:3 #=T CELL(abcABC):=T 1.889726e+02=T 90.00000=T Traj:=T positionsangstrom=T Step:=T 0=T Bead:=T pbc="F F F"
C      -46.79470000     -36.15430000     -74.31970000
C      -47.19030000     -35.02750000     -73.61850000
C      -46.48620000     -33.83990000     -73.88520000
C      -45.41020000     -33.81840000     -74.79040000
C      -45.00120000     -34.96070000     -75.45520000
C      -45.82970000     -36.08020000     -75.32540000
H      -47.30620000     -37.09650000     -74.13200000
H      -46.64780000     -32.93510000     -73.32850000
H      -44.24340000     -34.94770000     -76.21490000
H      -45.50360000     -36.83010000     -76.01220000
C      -44.76750000     -32.47480000     -75.14360000
H      -45.55620000     -31.73820000     -74.91230000
H      -44.58570000     -32.47880000     -76.19650000
C      -48.26310000     -35.08470000     -72.61590000
H      -48.70180000     -34.07530000     -72.61100000
H      -49.05710000     -35.84210000     -72.77400000
S      -43.23380000     -32.19030000     -74.21870000
S      -47.61020000     -35.39890000     -70.86520000
C      -43.93780000     -31.73340000     -72.53390000
H      -44.29370000     -30.64020000     -72.56970000
H      -44.73710000     -32.43510000     -72.49870000
C      -45.85710000     -35.84970000     -70.92650000
H      -45.60380000     -36.08760000     -71.96980000
H      -45.72300000     -36.73320000     -70.32730000
C      -44.68270000     -34.91200000     -70.49010000
H      -43.80200000     -35.53140000     -70.27020000
H      -44.31710000     -34.43990000     -71.41740000
C      -43.07540000     -32.02470000     -71.28940000
H      -42.09680000     -31.49380000     -71.22110000
H      -42.75280000     -33.06900000     -71.19580000
C      -43.85550000     -31.66060000     -70.06090000
C      -43.95300000     -30.32400000     -69.70680000
C      -44.50780000     -32.58700000     -69.21020000
H      -43.69680000     -29.47470000     -70.36840000
C      -45.00590000     -31.94380000     -68.04380000
C      -44.91330000     -34.01900000     -69.30150000
C      -45.67040000     -34.38250000     -68.20000000
S      -44.71380000     -30.23050000     -68.06000000
S      -45.82320000     -33.13240000     -67.02610000
H      -45.95420000     -35.34880000     -67.79370000
