40
Properties=species:S:1:pos:R:3 #=T CELL(abcABC):=T 1.889726e+02=T 90.00000=T Traj:=T positionsangstrom=T Step:=T 0=T Bead:=T pbc="F F F"
C      -46.83490000     -35.04370000     -74.60380000
C      -47.39680000     -35.02740000     -73.28080000
C      -46.84480000     -35.91990000     -72.30710000
C      -45.88640000     -36.86180000     -72.63240000
C      -45.41640000     -36.88980000     -73.96250000
C      -45.81430000     -35.90260000     -74.87600000
H      -47.21550000     -34.42110000     -75.41060000
H      -47.30740000     -36.07880000     -71.28320000
H      -44.69980000     -37.68710000     -74.26100000
H      -45.55010000     -35.97030000     -75.98120000
C      -45.24180000     -37.78250000     -71.62700000
H      -44.17750000     -37.78710000     -71.92370000
H      -45.81080000     -38.80360000     -71.63920000
C      -48.46440000     -34.01880000     -72.91630000
H      -49.41600000     -34.35140000     -73.34190000
H      -48.59830000     -33.87140000     -71.85450000
S      -45.30920000     -37.09220000     -69.84360000
S      -48.13100000     -32.26820000     -73.53550000
C      -44.45060000     -35.42760000     -70.07710000
H      -43.62600000     -35.40970000     -69.29770000
H      -44.18400000     -35.46450000     -71.19840000
C      -46.93740000     -31.47030000     -72.31190000
H      -47.24550000     -31.93870000     -71.34320000
H      -47.17040000     -30.36950000     -72.13090000
C      -45.48480000     -31.72120000     -72.52720000
H      -45.29010000     -32.81890000     -72.51170000
H      -45.09570000     -31.40390000     -73.39810000
C      -45.32900000     -34.10820000     -69.94460000
H      -46.01910000     -34.38200000     -69.15450000
H      -45.87490000     -33.97270000     -70.90990000
C      -44.54790000     -32.86900000     -69.54890000
C      -44.00540000     -32.78150000     -68.25680000
C      -44.33140000     -31.61110000     -70.21030000
H      -44.04320000     -33.61730000     -67.64640000
C      -43.49880000     -30.74360000     -69.49350000
C      -44.61560000     -31.05420000     -71.47610000
C      -43.92010000     -29.85790000     -71.80980000
S      -43.07310000     -31.34850000     -67.91820000
S      -43.09460000     -29.21570000     -70.33230000
H      -44.15280000     -29.15490000     -72.49640000
