40
Properties=species:S:1:pos:R:3 #=T CELL(abcABC):=T 1.889726e+02=T 90.00000=T Traj:=T positionsangstrom=T Step:=T 0=T Bead:=T pbc="F F F"
C      -45.61000000     -31.01990000     -72.79360000
C      -45.04390000     -31.81880000     -73.77220000
C      -45.68760000     -33.01980000     -74.16770000
C      -46.81330000     -33.50330000     -73.40830000
C      -47.37740000     -32.67680000     -72.45670000
C      -46.72160000     -31.46710000     -72.11610000
H      -45.08660000     -30.07130000     -72.57960000
H      -45.24370000     -33.61160000     -74.95010000
H      -48.22220000     -33.13910000     -71.92350000
H      -47.21320000     -30.64980000     -71.54580000
C      -47.30270000     -34.94790000     -73.69240000
H      -46.56480000     -35.29930000     -74.41620000
H      -48.30580000     -34.90330000     -74.13450000
C      -43.76690000     -31.38580000     -74.41340000
H      -43.48510000     -32.15260000     -75.15880000
H      -43.78400000     -30.41260000     -74.93130000
S      -47.20290000     -35.92200000     -72.15710000
S      -42.52090000     -31.57600000     -73.04410000
C      -45.35810000     -36.15820000     -71.97770000
H      -45.03940000     -37.00070000     -72.58820000
H      -44.86450000     -35.26960000     -72.43020000
C      -42.61080000     -33.44790000     -72.70920000
H      -41.75070000     -34.00480000     -73.18530000
H      -43.49330000     -33.82840000     -73.23030000
C      -42.69810000     -33.75310000     -71.24130000
H      -42.72920000     -34.85800000     -71.05390000
H      -41.81180000     -33.42000000     -70.72510000
C      -44.93930000     -36.37150000     -70.48760000
H      -43.87190000     -36.49450000     -70.43560000
H      -45.41930000     -37.32290000     -69.96840000
C      -45.40620000     -35.22330000     -69.66210000
C      -46.52500000     -35.39560000     -68.84070000
C      -44.99130000     -33.87570000     -69.75170000
H      -47.22850000     -36.28250000     -68.75390000
C      -45.84160000     -33.04440000     -68.98870000
C      -43.86840000     -33.12650000     -70.34470000
C      -43.87610000     -31.81230000     -69.82240000
S      -47.00250000     -33.86740000     -67.98040000
S      -45.16640000     -31.44110000     -68.70280000
H      -43.28130000     -31.02240000     -70.15250000
