40
Properties=species:S:1:pos:R:3 #=T CELL(abcABC):=T 1.889726e+02=T 90.00000=T Traj:=T positionsangstrom=T Step:=T 0=T Bead:=T pbc="F F F"
C      -47.12810000     -36.22410000     -71.32060000
C      -45.81500000     -36.54830000     -70.84080000
C      -45.47950000     -36.21140000     -69.48100000
C      -46.42170000     -35.49570000     -68.75260000
C      -47.73100000     -35.27100000     -69.21260000
C      -48.10790000     -35.69980000     -70.48850000
H      -47.38350000     -36.59050000     -72.29090000
H      -44.56840000     -36.42310000     -68.99220000
H      -48.46900000     -34.68930000     -68.53740000
H      -49.08950000     -35.53520000     -70.95070000
C      -45.92610000     -35.02800000     -67.37320000
H      -45.43160000     -35.88570000     -66.87600000
H      -46.67650000     -34.61920000     -66.64430000
C      -44.79550000     -37.25720000     -71.64370000
H      -44.37390000     -38.03960000     -70.97360000
H      -45.17320000     -37.64430000     -72.56290000
S      -44.62720000     -33.71300000     -67.55250000
S      -43.34820000     -36.19410000     -72.17640000
C      -45.28430000     -32.41340000     -68.76400000
H      -46.36000000     -32.42640000     -68.86900000
H      -44.97720000     -31.35920000     -68.40280000
C      -44.29460000     -34.78310000     -72.96910000
H      -45.19250000     -34.46180000     -72.41630000
H      -44.61640000     -35.02620000     -73.99880000
C      -43.40360000     -33.53050000     -73.02820000
H      -42.90020000     -33.33460000     -72.09860000
H      -42.65890000     -33.63090000     -73.82510000
C      -44.68330000     -32.57140000     -70.21530000
H      -45.14860000     -33.57920000     -70.63600000
H      -43.61090000     -32.78910000     -70.22850000
C      -45.08690000     -31.37470000     -71.06740000
C      -45.92610000     -30.30370000     -70.70840000
C      -44.84490000     -31.42720000     -72.51360000
H      -46.32750000     -30.12850000     -69.70150000
C      -45.56020000     -30.47220000     -73.23510000
C      -44.21820000     -32.36410000     -73.44100000
C      -44.32120000     -31.93310000     -74.72060000
S      -46.50650000     -29.46660000     -72.15910000
S      -45.39500000     -30.58360000     -74.96810000
H      -43.87730000     -32.47110000     -75.52800000
