40
Properties=species:S:1:pos:R:3 #=T CELL(abcABC):=T 1.889726e+02=T 90.00000=T Traj:=T positionsangstrom=T Step:=T 0=T Bead:=T pbc="F F F"
C      -45.84010000     -31.03460000     -72.07350000
C      -45.12890000     -31.76830000     -73.05510000
C      -45.72140000     -32.96890000     -73.59560000
C      -46.94800000     -33.48950000     -73.01350000
C      -47.71130000     -32.71210000     -72.08830000
C      -47.10870000     -31.52690000     -71.58320000
H      -45.44460000     -30.02490000     -71.93120000
H      -45.20670000     -33.52440000     -74.33720000
H      -48.72660000     -33.01160000     -71.74310000
H      -47.83350000     -30.90210000     -71.04980000
C      -47.52400000     -34.78900000     -73.57340000
H      -47.13880000     -34.94090000     -74.56990000
H      -48.61640000     -34.60380000     -73.52980000
C      -43.81550000     -31.15190000     -73.53390000
H      -43.92590000     -31.15350000     -74.61120000
H      -43.76500000     -30.06230000     -73.24000000
S      -47.16450000     -36.19460000     -72.49870000
S      -42.16180000     -32.00680000     -73.17530000
C      -45.36520000     -36.27470000     -72.26740000
H      -44.94230000     -37.20270000     -72.75000000
H      -44.92650000     -35.39270000     -72.78430000
C      -42.69140000     -33.68460000     -72.62410000
H      -42.04530000     -34.41000000     -73.08420000
H      -43.65510000     -33.97560000     -72.86140000
C      -42.56130000     -33.74370000     -71.01760000
H      -42.64560000     -34.78290000     -70.69860000
H      -41.54320000     -33.40900000     -70.80570000
C      -44.81880000     -36.22510000     -70.76520000
H      -43.69110000     -36.19290000     -70.76930000
H      -45.07590000     -37.17600000     -70.22140000
C      -45.46850000     -35.04730000     -70.02900000
C      -46.64710000     -35.22020000     -69.31770000
C      -44.88970000     -33.70070000     -69.86970000
H      -47.19400000     -36.07340000     -69.33800000
C      -45.60680000     -32.96120000     -68.96780000
C      -43.71570000     -33.05600000     -70.30870000
C      -43.64780000     -31.76180000     -69.85550000
S      -47.11780000     -33.71270000     -68.50840000
S      -45.10380000     -31.29900000     -68.98530000
H      -42.79350000     -31.07470000     -70.03570000
