40
Properties=species:S:1:pos:R:3 #=T CELL(abcABC):=T 1.889726e+02=T 90.00000=T Traj:=T positionsangstrom=T Step:=T 0=T Bead:=T pbc="F F F"
C      -45.98640000     -31.18420000     -71.95070000
C      -45.31660000     -31.80460000     -73.09890000
C      -45.87000000     -33.00050000     -73.61940000
C      -47.02160000     -33.55770000     -73.05940000
C      -47.72130000     -32.92730000     -71.99120000
C      -47.22350000     -31.70500000     -71.54060000
H      -45.81780000     -30.20480000     -71.54010000
H      -45.38330000     -33.54390000     -74.46230000
H      -48.67030000     -33.31420000     -71.67640000
H      -47.71860000     -31.11950000     -70.76030000
C      -47.52930000     -34.85790000     -73.68470000
H      -47.04610000     -34.91330000     -74.72060000
H      -48.54680000     -34.84850000     -73.99450000
C      -44.07550000     -31.18470000     -73.80210000
H      -44.16440000     -31.31870000     -74.91480000
H      -43.98820000     -30.10640000     -73.62940000
S      -47.19920000     -36.30600000     -72.63650000
S      -42.38940000     -31.74120000     -73.09390000
C      -45.39500000     -36.28950000     -72.26130000
H      -44.93520000     -37.18340000     -72.76610000
H      -45.00100000     -35.36770000     -72.78730000
C      -42.65360000     -33.47830000     -72.70860000
H      -41.96820000     -34.10270000     -73.19800000
H      -43.62200000     -33.86350000     -72.99710000
C      -42.46300000     -33.81480000     -71.18670000
H      -42.55340000     -34.89970000     -71.17210000
H      -41.46250000     -33.59290000     -70.87620000
C      -45.08720000     -36.26100000     -70.77960000
H      -43.99290000     -36.22560000     -70.67590000
H      -45.49900000     -37.25040000     -70.39200000
C      -45.54140000     -34.98010000     -70.02870000
C      -46.71610000     -35.05190000     -69.34500000
C      -44.82220000     -33.72730000     -69.85740000
H      -47.33750000     -35.89800000     -69.19840000
C      -45.49540000     -32.85700000     -69.00210000
C      -43.53440000     -33.10910000     -70.30400000
C      -43.28900000     -31.90070000     -69.69750000
S      -47.05920000     -33.53110000     -68.52600000
S      -44.66920000     -31.38420000     -68.73060000
H      -42.47430000     -31.27620000     -69.83610000
