40
Properties=species:S:1:pos:R:3 #=T CELL(abcABC):=T 1.889726e+02=T 90.00000=T Traj:=T positionsangstrom=T Step:=T 0=T Bead:=T pbc="F F F"
C      -45.96670000     -31.21780000     -72.18450000
C      -45.36740000     -31.76580000     -73.32160000
C      -45.93530000     -33.00380000     -73.83450000
C      -47.06240000     -33.56440000     -73.15660000
C      -47.73380000     -32.89880000     -72.12470000
C      -47.16920000     -31.70200000     -71.70930000
H      -45.75410000     -30.25510000     -71.69690000
H      -45.50290000     -33.52670000     -74.67720000
H      -48.61060000     -33.27640000     -71.60130000
H      -47.55750000     -31.21640000     -70.81500000
C      -47.66600000     -34.88010000     -73.71470000
H      -47.34350000     -35.00710000     -74.75450000
H      -48.73990000     -34.87050000     -73.59590000
C      -44.13620000     -31.15660000     -73.86810000
H      -44.03150000     -31.47360000     -74.87820000
H      -44.23040000     -30.07030000     -73.87810000
S      -47.21950000     -36.33860000     -72.62230000
S      -42.67530000     -31.59320000     -72.74310000
C      -45.43290000     -36.17820000     -72.35960000
H      -44.86600000     -36.96840000     -72.86360000
H      -45.13330000     -35.26450000     -72.82530000
C      -42.76210000     -33.44500000     -72.67130000
H      -42.04240000     -33.93270000     -73.39910000
H      -43.80360000     -33.75130000     -72.88120000
C      -42.37540000     -33.81670000     -71.22860000
H      -42.31130000     -34.91420000     -71.26800000
H      -41.38630000     -33.43700000     -70.94530000
C      -45.10560000     -36.24080000     -70.86200000
H      -44.01770000     -36.30220000     -70.66990000
H      -45.55270000     -37.10350000     -70.37230000
C      -45.49720000     -35.03140000     -70.04510000
C      -46.75740000     -34.98040000     -69.49660000
C      -44.65290000     -33.86340000     -69.76360000
H      -47.52800000     -35.76720000     -69.69240000
C      -45.34750000     -32.93570000     -68.89260000
C      -43.35450000     -33.27940000     -70.22100000
C      -43.15160000     -32.05500000     -69.65670000
S      -47.04310000     -33.47150000     -68.50620000
S      -44.46370000     -31.45060000     -68.63690000
H      -42.26670000     -31.48640000     -69.78660000
