40
Properties=species:S:1:pos:R:3 #=T CELL(abcABC):=T 1.889726e+02=T 90.00000=T Traj:=T positionsangstrom=T Step:=T 0=T Bead:=T pbc="F F F"
C      -46.43480000     -31.05870000     -72.25630000
C      -45.64370000     -31.69320000     -73.22420000
C      -46.15340000     -32.89220000     -73.75030000
C      -47.33640000     -33.45540000     -73.22620000
C      -47.99370000     -32.80600000     -72.21850000
C      -47.61460000     -31.57690000     -71.73570000
H      -46.41760000     -30.05150000     -71.87860000
H      -45.63790000     -33.21230000     -74.61480000
H      -48.74330000     -33.40390000     -71.73280000
H      -48.19680000     -31.00750000     -71.04350000
C      -47.83670000     -34.73110000     -73.73510000
H      -47.64740000     -34.78740000     -74.81280000
H      -48.90030000     -34.89380000     -73.48890000
C      -44.39870000     -31.11580000     -73.75240000
H      -44.09610000     -31.63050000     -74.71660000
H      -44.47560000     -30.00900000     -73.81160000
S      -47.06190000     -36.27170000     -72.93110000
S      -42.98700000     -31.31180000     -72.61030000
C      -45.24840000     -36.09880000     -72.69100000
H      -44.69990000     -36.91420000     -73.16290000
H      -44.96200000     -35.06310000     -73.07960000
C      -42.85150000     -33.14480000     -72.52630000
H      -42.33300000     -33.47770000     -73.37150000
H      -43.93550000     -33.42540000     -72.67650000
C      -42.30860000     -33.73800000     -71.25830000
H      -42.27220000     -34.84320000     -71.39810000
H      -41.27750000     -33.41330000     -71.08060000
C      -44.76540000     -36.05180000     -71.23330000
H      -43.69740000     -35.97120000     -71.36470000
H      -44.86910000     -36.98570000     -70.78270000
C      -45.33690000     -34.97360000     -70.36400000
C      -46.65970000     -34.88350000     -69.88270000
C      -44.53780000     -33.96350000     -69.79290000
H      -47.43200000     -35.67410000     -69.93270000
C      -45.18600000     -33.25690000     -68.76460000
C      -43.23950000     -33.38810000     -70.05260000
C      -42.86760000     -32.40280000     -69.19740000
S      -46.83460000     -33.67990000     -68.61100000
S      -44.13860000     -31.94810000     -68.10030000
H      -41.96640000     -31.83280000     -69.22940000
