40
Properties=species:S:1:pos:R:3 #=T CELL(abcABC):=T 1.889726e+02=T 90.00000=T Traj:=T positionsangstrom=T Step:=T 0=T Bead:=T pbc="F F F"
C      -47.23550000     -36.25750000     -71.38870000
C      -45.94380000     -36.59040000     -70.90030000
C      -45.50000000     -36.16850000     -69.62100000
C      -46.41110000     -35.54660000     -68.78110000
C      -47.69080000     -35.21290000     -69.22520000
C      -48.02810000     -35.51300000     -70.52720000
H      -47.57070000     -36.38090000     -72.39670000
H      -44.46770000     -36.46980000     -69.33740000
H      -48.33610000     -34.68280000     -68.54640000
H      -49.06160000     -35.35500000     -70.84780000
C      -46.10190000     -35.01150000     -67.39120000
H      -45.86400000     -35.81930000     -66.74150000
H      -46.99970000     -34.58280000     -66.90970000
C      -45.00120000     -37.22540000     -71.85620000
H      -44.70020000     -38.19280000     -71.37010000
H      -45.45880000     -37.56600000     -72.81360000
S      -44.69910000     -33.78530000     -67.52530000
S      -43.49240000     -36.18800000     -72.04420000
C      -45.40290000     -32.51710000     -68.64200000
H      -46.46410000     -32.67520000     -68.64620000
H      -45.25440000     -31.51980000     -68.25080000
C      -44.12190000     -34.77770000     -73.08760000
H      -45.15720000     -34.66270000     -72.71060000
H      -44.21630000     -35.15900000     -74.09000000
C      -43.32700000     -33.50340000     -73.06950000
H      -42.97540000     -33.32280000     -72.02500000
H      -42.41320000     -33.59650000     -73.66530000
C      -44.68970000     -32.57530000     -70.06880000
H      -44.66970000     -33.48310000     -70.52410000
H      -43.61450000     -32.37000000     -69.89830000
C      -45.17940000     -31.49840000     -71.10610000
C      -45.95550000     -30.36480000     -70.72400000
C      -44.94350000     -31.57130000     -72.54190000
H      -46.18670000     -30.06490000     -69.73050000
C      -45.44770000     -30.50790000     -73.21450000
C      -44.17780000     -32.33950000     -73.44390000
C      -44.28300000     -31.96470000     -74.72830000
S      -46.20600000     -29.35500000     -72.13520000
S      -45.31570000     -30.55070000     -74.93150000
H      -43.71650000     -32.39150000     -75.56910000
