40
Properties=species:S:1:pos:R:3 #=T CELL(abcABC):=T 1.889726e+02=T 90.00000=T Traj:=T positionsangstrom=T Step:=T 0=T Bead:=T pbc="F F F"
C      -46.27950000     -31.22150000     -71.91020000
C      -45.72270000     -31.50460000     -73.16830000
C      -46.31030000     -32.63590000     -73.80740000
C      -47.33760000     -33.44750000     -73.26750000
C      -47.72990000     -33.10880000     -71.96830000
C      -47.28790000     -32.00420000     -71.25510000
H      -46.07150000     -30.30800000     -71.40240000
H      -45.84250000     -32.92280000     -74.76480000
H      -48.38510000     -33.84580000     -71.47000000
H      -47.51490000     -31.84010000     -70.16950000
C      -47.81810000     -34.70070000     -73.89120000
H      -47.70980000     -34.76810000     -74.98020000
H      -48.86500000     -34.85090000     -73.67710000
C      -44.45090000     -30.91600000     -73.62020000
H      -44.18830000     -31.24500000     -74.65490000
H      -44.64150000     -29.79190000     -73.60530000
S      -47.14200000     -36.17010000     -73.12780000
S      -42.98650000     -31.15190000     -72.43130000
C      -45.27520000     -35.74670000     -73.09860000
H      -44.65510000     -36.45040000     -73.72120000
H      -45.13150000     -34.76920000     -73.47280000
C      -42.63080000     -33.02530000     -72.59580000
H      -41.75730000     -33.04060000     -73.29260000
H      -43.44310000     -33.54940000     -73.05610000
C      -42.26680000     -33.61510000     -71.19980000
H      -42.13310000     -34.68280000     -71.27650000
H      -41.27920000     -33.20740000     -70.90120000
C      -44.77890000     -35.92080000     -71.62430000
H      -43.74440000     -35.76850000     -71.57370000
H      -45.09810000     -36.97590000     -71.40090000
C      -45.35070000     -35.03950000     -70.52760000
C      -46.46970000     -35.31020000     -69.72260000
C      -44.58970000     -33.98470000     -69.88940000
H      -47.27480000     -35.88890000     -70.11650000
C      -45.21720000     -33.31690000     -68.81940000
C      -43.33580000     -33.27500000     -70.11620000
C      -43.10590000     -32.16780000     -69.34100000
S      -46.75400000     -34.07340000     -68.45770000
S      -44.36460000     -31.95740000     -68.15320000
H      -42.09530000     -31.64840000     -69.35410000
