40
Properties=species:S:1:pos:R:3 #=T CELL(abcABC):=T 1.889726e+02=T 90.00000=T Traj:=T positionsangstrom=T Step:=T 0=T Bead:=T pbc="F F F"
C      -46.39020000     -30.94480000     -71.78870000
C      -45.82460000     -31.28290000     -73.05180000
C      -46.21270000     -32.47770000     -73.66270000
C      -47.24390000     -33.27240000     -73.23200000
C      -47.91030000     -32.87730000     -72.06150000
C      -47.44980000     -31.72890000     -71.35640000
H      -45.91340000     -30.28750000     -71.10870000
H      -45.76940000     -32.67740000     -74.68000000
H      -48.82790000     -33.32530000     -71.63930000
H      -47.93840000     -31.51640000     -70.38620000
C      -47.64740000     -34.53030000     -73.99960000
H      -47.20250000     -34.71960000     -75.00320000
H      -48.73400000     -34.50660000     -74.04100000
C      -44.70090000     -30.53370000     -73.59140000
H      -44.49590000     -30.78300000     -74.68330000
H      -44.97210000     -29.46000000     -73.60020000
S      -47.10980000     -36.08110000     -72.99670000
S      -43.06900000     -30.66480000     -72.67230000
C      -45.23240000     -35.75730000     -72.95760000
H      -44.73900000     -36.12650000     -73.84140000
H      -45.11880000     -34.66600000     -73.01830000
C      -42.87110000     -32.45870000     -72.77060000
H      -41.98740000     -32.53910000     -73.43360000
H      -43.72710000     -32.89910000     -73.29630000
C      -42.53140000     -33.13500000     -71.41230000
H      -42.18060000     -34.15190000     -71.54400000
H      -41.57820000     -32.58660000     -71.10210000
C      -44.55760000     -36.25450000     -71.69640000
H      -43.45130000     -36.24920000     -71.91480000
H      -44.66730000     -37.29700000     -71.52120000
C      -44.90040000     -35.48490000     -70.40900000
C      -45.77000000     -36.01540000     -69.48820000
C      -44.56140000     -34.06940000     -69.98810000
H      -46.15960000     -36.98820000     -69.54230000
C      -45.28070000     -33.71570000     -68.81000000
C      -43.51950000     -33.13430000     -70.29580000
C      -43.62620000     -32.01120000     -69.50880000
S      -46.22230000     -35.01840000     -68.16210000
S      -44.72800000     -32.17000000     -68.20990000
H      -42.87020000     -31.25100000     -69.56090000
