40
Properties=species:S:1:pos:R:3 #=T CELL(abcABC):=T 1.889726e+02=T 90.00000=T Traj:=T positionsangstrom=T Step:=T 0=T Bead:=T pbc="F F F"
C      -46.54320000     -30.88210000     -71.97080000
C      -45.85810000     -31.35150000     -73.14510000
C      -46.33640000     -32.49260000     -73.75660000
C      -47.21720000     -33.33080000     -73.16900000
C      -47.86660000     -32.90810000     -71.95000000
C      -47.58320000     -31.67880000     -71.39630000
H      -46.43950000     -29.84040000     -71.69890000
H      -45.89230000     -32.90380000     -74.64040000
H      -48.56480000     -33.55030000     -71.47280000
H      -48.23910000     -31.26910000     -70.64510000
C      -47.82980000     -34.60790000     -73.83700000
H      -47.37210000     -34.69410000     -74.82500000
H      -48.88730000     -34.74810000     -73.78820000
C      -44.73760000     -30.57690000     -73.72140000
H      -44.60830000     -30.82270000     -74.72960000
H      -44.88190000     -29.46710000     -73.64320000
S      -46.98790000     -36.11670000     -73.08240000
S      -43.14200000     -30.78620000     -72.73500000
C      -45.13520000     -35.68660000     -72.99040000
H      -44.74180000     -36.32920000     -73.80220000
H      -45.00640000     -34.59440000     -73.21020000
C      -42.86580000     -32.64470000     -72.84290000
H      -41.95720000     -32.83200000     -73.47050000
H      -43.72140000     -33.07490000     -73.34050000
C      -42.51440000     -33.16040000     -71.40140000
H      -42.15350000     -34.19710000     -71.55680000
H      -41.63960000     -32.59480000     -71.06990000
C      -44.48850000     -36.07990000     -71.66830000
H      -43.40480000     -35.96180000     -71.77410000
H      -44.66250000     -37.17560000     -71.47480000
C      -45.00500000     -35.32590000     -70.40950000
C      -45.88160000     -35.93180000     -69.55450000
C      -44.47440000     -34.07170000     -69.86030000
H      -46.44250000     -36.82580000     -69.67570000
C      -45.13100000     -33.70960000     -68.70200000
C      -43.55840000     -33.10470000     -70.29520000
C      -43.54920000     -32.00470000     -69.48050000
S      -46.14680000     -34.97070000     -68.03670000
S      -44.68910000     -32.10890000     -68.14750000
H      -42.79980000     -31.23230000     -69.51370000
