40
Properties=species:S:1:pos:R:3 #=T CELL(abcABC):=T 1.889726e+02=T 90.00000=T Traj:=T positionsangstrom=T Step:=T 0=T Bead:=T pbc="F F F"
C      -46.83700000     -31.04350000     -71.70390000
C      -46.15720000     -31.43070000     -72.87000000
C      -46.51220000     -32.63370000     -73.52230000
C      -47.43110000     -33.54370000     -72.92620000
C      -48.00020000     -33.11140000     -71.66960000
C      -47.77650000     -31.89320000     -71.03550000
H      -46.48530000     -30.11560000     -71.20410000
H      -46.05490000     -32.92570000     -74.48610000
H      -48.72650000     -33.83060000     -71.18070000
H      -48.23580000     -31.56550000     -70.11010000
C      -47.63880000     -34.87860000     -73.62540000
H      -47.37810000     -34.81830000     -74.73770000
H      -48.75410000     -35.15850000     -73.49620000
C      -45.12030000     -30.54550000     -73.46890000
H      -44.88010000     -30.78090000     -74.48360000
H      -45.40480000     -29.49740000     -73.36320000
S      -46.71680000     -36.19660000     -72.84640000
S      -43.50490000     -30.60250000     -72.63530000
C      -45.00890000     -35.72620000     -73.11070000
H      -44.56710000     -36.30350000     -73.98220000
H      -44.94610000     -34.62850000     -73.32530000
C      -42.79800000     -32.26730000     -72.79200000
H      -41.96100000     -32.26020000     -73.56830000
H      -43.56990000     -32.90620000     -73.24270000
C      -42.32970000     -32.87680000     -71.46010000
H      -42.05590000     -33.86940000     -71.69920000
H      -41.41420000     -32.37310000     -71.12740000
C      -44.09830000     -36.02950000     -71.87250000
H      -43.12830000     -35.64670000     -72.16120000
H      -44.01400000     -37.12120000     -71.64600000
C      -44.65200000     -35.28750000     -70.60640000
C      -45.58620000     -35.95730000     -69.86190000
C      -44.28570000     -33.95950000     -70.10340000
H      -45.91030000     -36.90790000     -70.21060000
C      -44.99070000     -33.77130000     -68.93140000
C      -43.33910000     -32.86530000     -70.39360000
C      -43.58320000     -31.79540000     -69.52790000
S      -46.14900000     -35.04160000     -68.49650000
S      -44.78260000     -32.13370000     -68.29770000
H      -43.09360000     -30.85470000     -69.56240000
