40
Properties=species:S:1:pos:R:3 #=T CELL(abcABC):=T 1.889726e+02=T 90.00000=T Traj:=T positionsangstrom=T Step:=T 0=T Bead:=T pbc="F F F"
C      -46.70520000     -31.18960000     -71.48520000
C      -46.17090000     -31.54850000     -72.70500000
C      -46.61500000     -32.67680000     -73.38080000
C      -47.49240000     -33.55990000     -72.79550000
C      -48.13870000     -33.14650000     -71.66930000
C      -47.72820000     -32.01510000     -71.00230000
H      -46.49410000     -30.28980000     -70.97580000
H      -46.25840000     -32.91390000     -74.41270000
H      -48.93700000     -33.76750000     -71.12660000
H      -48.20180000     -31.82130000     -70.04820000
C      -47.84250000     -34.88430000     -73.41320000
H      -47.98160000     -34.89770000     -74.44550000
H      -48.70680000     -35.25520000     -72.90600000
C      -45.15490000     -30.65970000     -73.31400000
H      -45.06520000     -31.06460000     -74.36190000
H      -45.59990000     -29.69010000     -73.34720000
S      -46.54240000     -36.16460000     -73.01050000
S      -43.45440000     -30.47230000     -72.55130000
C      -44.86600000     -35.36030000     -73.07410000
H      -44.46960000     -35.56460000     -74.05100000
H      -44.87800000     -34.28560000     -72.94370000
C      -42.81360000     -32.15680000     -72.86380000
H      -42.02190000     -32.22480000     -73.55530000
H      -43.58960000     -32.77460000     -73.29010000
C      -42.40020000     -32.91870000     -71.58310000
H      -42.12290000     -33.92700000     -71.77990000
H      -41.46730000     -32.38580000     -71.21660000
C      -44.06530000     -35.95580000     -71.88790000
H      -43.03530000     -35.70460000     -72.14410000
H      -44.11600000     -37.03310000     -71.90360000
C      -44.56930000     -35.40070000     -70.54850000
C      -45.49330000     -36.08370000     -69.80740000
C      -44.31310000     -34.01840000     -70.14030000
H      -45.82520000     -37.12050000     -70.00820000
C      -45.11610000     -33.74460000     -69.04180000
C      -43.39720000     -32.93660000     -70.48190000
C      -43.59510000     -31.80870000     -69.69970000
S      -46.17200000     -35.08230000     -68.52060000
S      -44.82030000     -32.08670000     -68.45480000
H      -43.07930000     -30.85960000     -69.76550000
