40
Properties=species:S:1:pos:R:3 #=T CELL(abcABC):=T 1.889726e+02=T 90.00000=T Traj:=T positionsangstrom=T Step:=T 0=T Bead:=T pbc="F F F"
C      -46.61690000     -31.48160000     -71.15230000
C      -46.21380000     -31.42820000     -72.48590000
C      -46.43040000     -32.55270000     -73.22900000
C      -47.04540000     -33.69390000     -72.66290000
C      -47.56020000     -33.66720000     -71.39580000
C      -47.31920000     -32.56690000     -70.65110000
H      -46.34140000     -30.72000000     -70.44030000
H      -46.05170000     -32.59200000     -74.28630000
H      -48.00720000     -34.61550000     -71.10390000
H      -47.51330000     -32.34700000     -69.58560000
C      -47.32420000     -34.86290000     -73.61150000
H      -47.00970000     -34.62180000     -74.63340000
H      -48.43720000     -35.11080000     -73.67660000
C      -45.55200000     -30.20560000     -73.08450000
H      -45.65880000     -30.12290000     -74.16440000
H      -45.91730000     -29.21350000     -72.68940000
S      -46.56180000     -36.46120000     -73.09420000
S      -43.66320000     -30.27830000     -72.81810000
C      -44.84130000     -35.93690000     -73.25430000
H      -44.23040000     -36.45950000     -74.00530000
H      -44.85100000     -34.98300000     -73.78680000
C      -43.25870000     -32.07390000     -73.00390000
H      -42.46170000     -32.16650000     -73.77980000
H      -44.20910000     -32.54070000     -73.30080000
C      -42.72600000     -32.66730000     -71.75690000
H      -42.35080000     -33.70630000     -71.95270000
H      -41.85820000     -31.99750000     -71.34970000
C      -44.02260000     -35.91650000     -71.96510000
H      -43.05340000     -35.43510000     -72.29640000
H      -43.81520000     -36.95150000     -71.60440000
C      -44.77020000     -35.20400000     -70.78660000
C      -45.72320000     -35.82980000     -70.05650000
C      -44.47780000     -33.88080000     -70.21630000
H      -46.23670000     -36.79230000     -70.27920000
C      -45.10630000     -33.61620000     -68.97970000
C      -43.65500000     -32.76950000     -70.57010000
C      -43.67910000     -31.75100000     -69.64540000
S      -46.21480000     -34.97310000     -68.59850000
S      -44.63140000     -32.08920000     -68.15640000
H      -43.07570000     -30.86040000     -69.80730000
