40
Properties=species:S:1:pos:R:3 #=T CELL(abcABC):=T 1.889726e+02=T 90.00000=T Traj:=T positionsangstrom=T Step:=T 0=T Bead:=T pbc="F F F"
C      -46.64470000     -31.34790000     -71.50410000
C      -46.44520000     -31.48280000     -72.88340000
C      -46.70660000     -32.74930000     -73.49520000
C      -47.40010000     -33.77630000     -72.80830000
C      -47.72290000     -33.49990000     -71.43030000
C      -47.20760000     -32.37950000     -70.80300000
H      -46.42950000     -30.41860000     -70.97820000
H      -46.65340000     -32.74560000     -74.62040000
H      -48.29970000     -34.13540000     -70.78730000
H      -47.56540000     -32.19580000     -69.83500000
C      -47.67100000     -35.09210000     -73.46180000
H      -47.45410000     -35.02230000     -74.49780000
H      -48.64740000     -35.39140000     -73.30310000
C      -45.69420000     -30.42880000     -73.57870000
H      -45.82430000     -30.54860000     -74.66710000
H      -45.98470000     -29.44690000     -73.34050000
S      -46.52290000     -36.37590000     -72.67770000
S      -43.90500000     -30.28550000     -73.26310000
C      -44.80210000     -35.71930000     -73.10250000
H      -44.36600000     -36.31800000     -73.92860000
H      -44.93610000     -34.72790000     -73.59620000
C      -43.48460000     -32.06040000     -72.98500000
H      -42.73390000     -32.29780000     -73.66830000
H      -44.49660000     -32.53930000     -73.04960000
C      -42.83500000     -32.25380000     -71.58290000
H      -42.13260000     -33.09010000     -71.65640000
H      -42.20090000     -31.38990000     -71.35850000
C      -43.76820000     -35.61850000     -71.97670000
H      -43.04370000     -34.85620000     -72.30120000
H      -43.29980000     -36.64180000     -71.91390000
C      -44.29270000     -35.18230000     -70.62590000
C      -45.04260000     -36.06030000     -69.91650000
C      -44.20190000     -33.85830000     -70.01750000
H      -45.46020000     -37.01050000     -70.25790000
C      -44.79400000     -33.79050000     -68.80120000
C      -43.70850000     -32.58290000     -70.41720000
C      -43.91050000     -31.57600000     -69.44080000
S      -45.63050000     -35.28030000     -68.42170000
S      -44.94350000     -32.16200000     -68.16990000
H      -43.63770000     -30.54840000     -69.41900000
