40
Properties=species:S:1:pos:R:3 #=T CELL(abcABC):=T 1.889726e+02=T 90.00000=T Traj:=T positionsangstrom=T Step:=T 0=T Bead:=T pbc="F F F"
C      -46.68680000     -31.22510000     -71.38320000
C      -46.33550000     -31.51130000     -72.74230000
C      -46.74720000     -32.81690000     -73.11880000
C      -47.46490000     -33.73280000     -72.32500000
C      -47.93090000     -33.27910000     -71.06670000
C      -47.57350000     -32.02650000     -70.66160000
H      -46.39080000     -30.27750000     -70.95410000
H      -46.48260000     -33.20700000     -74.08970000
H      -48.63500000     -33.80270000     -70.36220000
H      -48.07470000     -31.69930000     -69.74010000
C      -47.88520000     -34.98380000     -72.93580000
H      -48.31880000     -34.84530000     -73.87020000
H      -48.64450000     -35.52370000     -72.37790000
C      -45.41760000     -30.73600000     -73.61400000
H      -45.37050000     -31.19660000     -74.60180000
H      -45.73140000     -29.65700000     -73.69840000
S      -46.63310000     -36.41850000     -72.99480000
S      -43.65910000     -30.43700000     -73.01340000
C      -44.90790000     -35.65660000     -73.20990000
H      -44.36660000     -36.12210000     -74.00720000
H      -45.00170000     -34.59190000     -73.38940000
C      -43.17590000     -32.18850000     -73.19230000
H      -42.59930000     -32.23660000     -74.16860000
H      -43.98870000     -32.85640000     -73.43730000
C      -42.55250000     -32.63730000     -71.89180000
H      -42.21230000     -33.69380000     -72.00550000
H      -41.76190000     -32.00330000     -71.52870000
C      -44.05900000     -35.85560000     -71.97410000
H      -43.02200000     -35.53610000     -72.10740000
H      -43.93970000     -36.95470000     -71.71190000
C      -44.49920000     -35.26400000     -70.63000000
C      -45.29020000     -35.96540000     -69.74460000
C      -44.27080000     -33.84680000     -70.22050000
H      -45.46490000     -37.08510000     -69.77200000
C      -44.90180000     -33.67150000     -69.02640000
C      -43.51200000     -32.71320000     -70.68260000
C      -43.78250000     -31.61190000     -69.87840000
S      -45.70680000     -35.05890000     -68.31700000
S      -44.75100000     -32.00850000     -68.45430000
H      -43.29770000     -30.65200000     -69.84470000
