40
Properties=species:S:1:pos:R:3 #=T CELL(abcABC):=T 1.889726e+02=T 90.00000=T Traj:=T positionsangstrom=T Step:=T 0=T Bead:=T pbc="F F F"
C      -47.26620000     -36.52080000     -71.40670000
C      -45.94090000     -36.67110000     -70.91080000
C      -45.67330000     -36.18450000     -69.57040000
C      -46.57650000     -35.33360000     -68.93120000
C      -47.82670000     -35.01570000     -69.56000000
C      -48.16590000     -35.63160000     -70.78830000
H      -47.49890000     -37.07240000     -72.30020000
H      -44.72070000     -36.38130000     -69.15430000
H      -48.55780000     -34.40310000     -69.07820000
H      -49.24270000     -35.54170000     -71.13370000
C      -46.22950000     -34.84610000     -67.53690000
H      -45.94390000     -35.73690000     -66.96220000
H      -46.93950000     -34.20760000     -67.07380000
C      -44.89840000     -37.42370000     -71.69410000
H      -44.23000000     -37.75380000     -70.93690000
H      -45.28630000     -38.32090000     -72.12320000
S      -44.65320000     -33.87400000     -67.51270000
S      -43.71600000     -36.41890000     -72.74970000
C      -44.90680000     -32.37970000     -68.54090000
H      -45.87340000     -31.90000000     -68.23080000
H      -44.07530000     -31.74470000     -68.24940000
C      -44.46970000     -34.73560000     -72.87890000
H      -45.10080000     -34.65110000     -71.99590000
H      -45.18580000     -34.68870000     -73.70310000
C      -43.41710000     -33.62390000     -73.00260000
H      -42.67650000     -33.65900000     -72.15740000
H      -42.85550000     -33.97420000     -73.86530000
C      -44.84500000     -32.62830000     -69.99350000
H      -45.53730000     -33.44270000     -70.33360000
H      -43.90440000     -32.99210000     -70.23070000
C      -45.13840000     -31.50860000     -70.89670000
C      -45.98670000     -30.44780000     -70.62290000
C      -44.82990000     -31.48460000     -72.36350000
H      -46.53220000     -30.22490000     -69.69200000
C      -45.41650000     -30.37140000     -73.02140000
C      -44.05370000     -32.33650000     -73.27070000
C      -44.02500000     -31.79640000     -74.50650000
S      -46.33680000     -29.37100000     -71.97900000
S      -44.90130000     -30.27320000     -74.74760000
H      -43.64690000     -32.21210000     -75.41540000
