40
Properties=species:S:1:pos:R:3 #=T CELL(abcABC):=T 1.889726e+02=T 90.00000=T Traj:=T positionsangstrom=T Step:=T 0=T Bead:=T pbc="F F F"
C      -46.66960000     -31.37460000     -71.11140000
C      -46.38350000     -31.60250000     -72.45980000
C      -46.85650000     -32.78820000     -73.07880000
C      -47.71240000     -33.65480000     -72.36760000
C      -47.90330000     -33.45250000     -71.02420000
C      -47.41240000     -32.29330000     -70.40490000
H      -46.24140000     -30.47030000     -70.65670000
H      -46.62890000     -33.02620000     -74.12750000
H      -48.44340000     -34.08690000     -70.36280000
H      -47.64400000     -31.97380000     -69.38090000
C      -48.03700000     -34.99670000     -72.99530000
H      -48.17760000     -34.87210000     -74.05740000
H      -48.94160000     -35.44130000     -72.61260000
C      -45.61760000     -30.69330000     -73.28130000
H      -45.40070000     -31.06390000     -74.31420000
H      -46.17580000     -29.72940000     -73.29330000
S      -46.80710000     -36.41700000     -72.96550000
S      -43.80980000     -30.29940000     -72.74290000
C      -45.10950000     -35.72650000     -73.10370000
H      -44.64450000     -35.98910000     -74.08220000
H      -45.27320000     -34.65650000     -73.22840000
C      -43.17570000     -31.97430000     -73.28450000
H      -42.32110000     -31.95640000     -73.96050000
H      -44.10520000     -32.41160000     -73.72190000
C      -42.54490000     -32.90140000     -72.23150000
H      -42.44950000     -33.85580000     -72.71840000
H      -41.47890000     -32.53630000     -72.12240000
C      -44.14740000     -36.08170000     -71.94000000
H      -43.08700000     -35.81450000     -72.09700000
H      -44.23720000     -37.10200000     -71.65730000
C      -44.56490000     -35.29560000     -70.65770000
C      -45.54700000     -35.84790000     -69.82080000
C      -44.05170000     -34.01520000     -70.27110000
H      -46.15740000     -36.73590000     -69.92440000
C      -44.73740000     -33.54260000     -69.10290000
C      -43.24320000     -32.90840000     -70.87790000
C      -43.28130000     -31.78820000     -70.05840000
S      -45.88450000     -34.73910000     -68.48830000
S      -44.22160000     -31.99170000     -68.63470000
H      -42.72890000     -30.86950000     -70.39360000
