40
Properties=species:S:1:pos:R:3 #=T CELL(abcABC):=T 1.889726e+02=T 90.00000=T Traj:=T positionsangstrom=T Step:=T 0=T Bead:=T pbc="F F F"
C      -46.70890000     -31.36170000     -71.03750000
C      -46.42030000     -31.53830000     -72.40250000
C      -46.92090000     -32.66990000     -73.11240000
C      -47.57870000     -33.67690000     -72.42520000
C      -47.83160000     -33.46420000     -71.04980000
C      -47.38190000     -32.35150000     -70.27310000
H      -46.36270000     -30.49230000     -70.40180000
H      -46.64870000     -32.65630000     -74.18120000
H      -48.14100000     -34.38370000     -70.54040000
H      -47.70690000     -32.13130000     -69.26350000
C      -48.01000000     -34.90740000     -73.13670000
H      -48.02730000     -34.86720000     -74.24560000
H      -48.98910000     -35.22860000     -72.72850000
C      -45.73600000     -30.42990000     -73.12540000
H      -45.99940000     -30.43680000     -74.13850000
H      -45.98040000     -29.51420000     -72.62530000
S      -46.84050000     -36.36660000     -72.71910000
S      -43.97120000     -30.57950000     -72.82450000
C      -45.24820000     -35.76260000     -73.23470000
H      -44.95480000     -36.37110000     -74.05430000
H      -45.26850000     -34.65860000     -73.40200000
C      -43.44400000     -32.28100000     -73.29160000
H      -43.13910000     -32.32310000     -74.32850000
H      -44.34640000     -32.88030000     -73.43420000
C      -42.51060000     -32.94000000     -72.24170000
H      -42.19270000     -33.95400000     -72.57210000
H      -41.62780000     -32.35270000     -72.18930000
C      -44.25500000     -35.98370000     -72.02390000
H      -43.19490000     -35.63320000     -72.30730000
H      -44.26200000     -37.09380000     -71.93870000
C      -44.61250000     -35.21540000     -70.75940000
C      -45.54900000     -35.73250000     -69.91270000
C      -44.08700000     -33.92560000     -70.42580000
H      -46.08490000     -36.65620000     -69.91080000
C      -44.64110000     -33.45290000     -69.26370000
C      -43.12600000     -32.98070000     -70.87780000
C      -42.99600000     -31.94740000     -69.98910000
S      -45.84430000     -34.60930000     -68.53140000
S      -44.01110000     -32.00280000     -68.57430000
H      -42.24200000     -31.18920000     -70.15610000
