40
Properties=species:S:1:pos:R:3 #=T CELL(abcABC):=T 1.889726e+02=T 90.00000=T Traj:=T positionsangstrom=T Step:=T 0=T Bead:=T pbc="F F F"
C      -46.85940000     -31.39760000     -71.03600000
C      -46.44930000     -31.59540000     -72.39320000
C      -46.95770000     -32.65150000     -73.11410000
C      -47.84950000     -33.58850000     -72.53950000
C      -48.23500000     -33.35960000     -71.18580000
C      -47.77000000     -32.26820000     -70.40710000
H      -46.45000000     -30.56660000     -70.48960000
H      -46.54130000     -32.79240000     -74.06700000
H      -48.79580000     -34.20970000     -70.71120000
H      -48.21120000     -32.27460000     -69.41070000
C      -48.21910000     -34.81650000     -73.28190000
H      -48.18670000     -34.73770000     -74.34190000
H      -49.10900000     -35.34260000     -73.01720000
C      -45.72770000     -30.43910000     -73.06460000
H      -46.15840000     -30.40490000     -74.08810000
H      -45.78170000     -29.45830000     -72.57020000
S      -47.04070000     -36.30530000     -72.87070000
S      -43.93060000     -30.60380000     -73.26960000
C      -45.29860000     -35.69360000     -73.10610000
H      -44.86810000     -36.22180000     -73.97240000
H      -45.30340000     -34.66560000     -73.33520000
C      -43.68980000     -32.41120000     -73.31930000
H      -43.24390000     -32.65750000     -74.29220000
H      -44.61700000     -33.00760000     -73.08980000
C      -42.60570000     -32.76430000     -72.29140000
H      -42.24250000     -33.72110000     -72.62060000
H      -41.73520000     -32.03650000     -72.33270000
C      -44.34140000     -35.97340000     -71.90830000
H      -43.31940000     -35.64470000     -72.24080000
H      -44.45830000     -37.10260000     -71.92030000
C      -44.64820000     -35.15590000     -70.67720000
C      -45.62760000     -35.55230000     -69.79680000
C      -43.92750000     -33.93860000     -70.28520000
H      -46.20730000     -36.46530000     -69.83410000
C      -44.23440000     -33.65220000     -68.96570000
C      -43.14930000     -32.90590000     -70.86190000
C      -42.88060000     -31.95210000     -69.93850000
S      -45.44130000     -34.72530000     -68.29920000
S      -43.64720000     -32.12900000     -68.36820000
H      -42.42890000     -31.01210000     -69.93180000
