40
Properties=species:S:1:pos:R:3 #=T CELL(abcABC):=T 1.889726e+02=T 90.00000=T Traj:=T positionsangstrom=T Step:=T 0=T Bead:=T pbc="F F F"
C      -46.96240000     -31.29130000     -71.20620000
C      -46.65340000     -31.45440000     -72.54280000
C      -47.05090000     -32.59000000     -73.23290000
C      -47.91930000     -33.51310000     -72.61210000
C      -48.24610000     -33.38380000     -71.23910000
C      -47.67290000     -32.32590000     -70.53550000
H      -46.60540000     -30.32850000     -70.82830000
H      -46.81120000     -32.77470000     -74.29990000
H      -48.76120000     -34.13910000     -70.72200000
H      -47.92830000     -32.19220000     -69.47000000
C      -48.30860000     -34.80210000     -73.30960000
H      -48.43890000     -34.66020000     -74.40750000
H      -49.32660000     -35.18490000     -72.98050000
C      -45.81720000     -30.44990000     -73.28620000
H      -46.16810000     -30.42250000     -74.32410000
H      -46.08400000     -29.57690000     -72.77530000
S      -47.11610000     -36.24920000     -72.82390000
S      -43.91910000     -30.45910000     -73.26470000
C      -45.44590000     -35.45470000     -73.03850000
H      -45.11770000     -35.79700000     -74.04290000
H      -45.72250000     -34.35930000     -73.00240000
C      -43.44540000     -32.28830000     -73.46450000
H      -42.86130000     -32.49440000     -74.30370000
H      -44.37130000     -32.79120000     -73.77610000
C      -42.64040000     -33.00240000     -72.25230000
H      -42.52310000     -34.04670000     -72.62400000
H      -41.58990000     -32.64850000     -72.18340000
C      -44.47250000     -35.88470000     -71.91030000
H      -43.48020000     -35.60010000     -72.18850000
H      -44.57080000     -36.92280000     -71.61910000
C      -44.69210000     -35.20200000     -70.59440000
C      -45.29350000     -35.86100000     -69.56880000
C      -44.11800000     -33.90930000     -70.25450000
H      -45.80660000     -36.77970000     -69.81280000
C      -44.35860000     -33.58920000     -68.87240000
C      -43.19600000     -32.98570000     -70.89980000
C      -42.73380000     -32.07230000     -69.99640000
S      -45.39330000     -34.81940000     -68.13210000
S      -43.40920000     -32.26530000     -68.30650000
H      -41.93060000     -31.32740000     -70.15610000
