40
Properties=species:S:1:pos:R:3 #=T CELL(abcABC):=T 1.889726e+02=T 90.00000=T Traj:=T positionsangstrom=T Step:=T 0=T Bead:=T pbc="F F F"
C      -46.86090000     -31.17190000     -71.43870000
C      -46.60520000     -31.35750000     -72.79060000
C      -47.12220000     -32.54380000     -73.43820000
C      -47.81870000     -33.53830000     -72.67780000
C      -48.01710000     -33.32580000     -71.30370000
C      -47.50750000     -32.15000000     -70.66730000
H      -46.43660000     -30.33130000     -70.85070000
H      -46.91290000     -32.62290000     -74.58260000
H      -48.61780000     -34.05800000     -70.87840000
H      -47.56410000     -32.09340000     -69.59230000
C      -48.19730000     -34.88700000     -73.34200000
H      -47.98770000     -34.79130000     -74.41540000
H      -49.23160000     -35.11630000     -73.13190000
C      -45.77800000     -30.44760000     -73.54730000
H      -45.72100000     -30.58150000     -74.66720000
H      -46.14770000     -29.37700000     -73.41780000
S      -47.16110000     -36.24620000     -72.74330000
S      -44.05930000     -30.54960000     -72.81470000
C      -45.54030000     -35.56390000     -73.14550000
H      -45.15150000     -35.93660000     -74.05770000
H      -45.52960000     -34.48730000     -73.23430000
C      -43.74550000     -32.31440000     -73.27790000
H      -43.41390000     -32.27780000     -74.35780000
H      -44.70270000     -32.85320000     -73.06200000
C      -42.68880000     -32.95540000     -72.30890000
H      -42.56170000     -34.02520000     -72.59800000
H      -41.75420000     -32.42970000     -72.41030000
C      -44.57490000     -35.90820000     -71.95660000
H      -43.53840000     -35.71640000     -72.23280000
H      -44.56050000     -36.97810000     -71.91950000
C      -44.81980000     -35.15040000     -70.61890000
C      -45.31720000     -35.80860000     -69.51130000
C      -44.04050000     -34.00920000     -70.27710000
H      -45.85080000     -36.71750000     -69.50930000
C      -44.17250000     -33.70310000     -68.91000000
C      -43.17510000     -33.04450000     -70.87530000
C      -42.88050000     -31.98600000     -70.01890000
S      -45.21740000     -34.84870000     -68.04860000
S      -43.46960000     -32.23760000     -68.38750000
H      -42.15720000     -31.13560000     -70.19300000
