40
Properties=species:S:1:pos:R:3 #=T CELL(abcABC):=T 1.889726e+02=T 90.00000=T Traj:=T positionsangstrom=T Step:=T 0=T Bead:=T pbc="F F F"
C      -46.88460000     -31.18540000     -71.47380000
C      -46.65610000     -31.34000000     -72.86330000
C      -47.23970000     -32.43250000     -73.53300000
C      -47.85680000     -33.47130000     -72.72020000
C      -47.92110000     -33.33740000     -71.32830000
C      -47.50280000     -32.13740000     -70.75830000
H      -46.44220000     -30.30140000     -70.98250000
H      -47.08650000     -32.70010000     -74.58160000
H      -48.21260000     -34.22450000     -70.78170000
H      -47.57180000     -31.93680000     -69.69320000
C      -48.27750000     -34.79040000     -73.28990000
H      -48.29370000     -34.92660000     -74.38910000
H      -49.31630000     -35.07050000     -73.02550000
C      -45.72500000     -30.38990000     -73.57380000
H      -45.56810000     -30.62780000     -74.57450000
H      -46.05860000     -29.36060000     -73.49360000
S      -47.23590000     -36.20350000     -72.72120000
S      -44.12660000     -30.53480000     -72.72840000
C      -45.46810000     -35.76620000     -72.92460000
H      -45.20220000     -36.31800000     -73.86880000
H      -45.41320000     -34.70010000     -73.22080000
C      -43.76760000     -32.24350000     -73.21410000
H      -43.41360000     -32.15620000     -74.22780000
H      -44.67870000     -32.82770000     -73.27660000
C      -42.70800000     -32.96860000     -72.33060000
H      -42.63990000     -34.02560000     -72.67840000
H      -41.72880000     -32.56400000     -72.34320000
C      -44.43300000     -36.14840000     -71.89180000
H      -43.47100000     -36.00600000     -72.46630000
H      -44.39100000     -37.25630000     -71.57140000
C      -44.56040000     -35.31520000     -70.65430000
C      -45.30110000     -35.86270000     -69.61960000
C      -43.89730000     -34.01220000     -70.25060000
H      -45.76270000     -36.83640000     -69.61100000
C      -44.19880000     -33.68940000     -68.93320000
C      -43.06730000     -32.95870000     -70.86680000
C      -42.83170000     -31.93580000     -69.96290000
S      -45.24140000     -34.88070000     -68.15780000
S      -43.52670000     -32.17540000     -68.35500000
H      -42.22080000     -31.06180000     -70.34140000
