40
Properties=species:S:1:pos:R:3 #=T CELL(abcABC):=T 1.889726e+02=T 90.00000=T Traj:=T positionsangstrom=T Step:=T 0=T Bead:=T pbc="F F F"
C      -47.05270000     -31.20570000     -71.01940000
C      -46.56000000     -31.48290000     -72.32500000
C      -46.83810000     -32.70000000     -72.90420000
C      -47.67160000     -33.65080000     -72.27210000
C      -48.16880000     -33.41980000     -71.01280000
C      -47.78760000     -32.17940000     -70.36490000
H      -46.69700000     -30.28600000     -70.54150000
H      -46.49010000     -32.89730000     -73.95920000
H      -48.65980000     -34.11700000     -70.40020000
H      -48.10820000     -32.07530000     -69.34780000
C      -48.08040000     -34.93560000     -73.03540000
H      -47.89080000     -34.78910000     -74.14830000
H      -49.09500000     -35.26920000     -72.90400000
C      -45.88420000     -30.46030000     -73.25770000
H      -46.29670000     -30.61670000     -74.32270000
H      -46.10470000     -29.36230000     -72.98130000
S      -47.00320000     -36.38400000     -72.46470000
S      -44.01380000     -30.56370000     -73.37760000
C      -45.36990000     -35.75610000     -72.98770000
H      -45.06930000     -36.24010000     -73.98850000
H      -45.43690000     -34.71580000     -73.11660000
C      -43.54330000     -32.37430000     -73.54820000
H      -43.14130000     -32.62230000     -74.56120000
H      -44.41440000     -33.07680000     -73.52500000
C      -42.54430000     -32.74720000     -72.39920000
H      -42.16110000     -33.81110000     -72.52760000
H      -41.82300000     -31.98040000     -72.44360000
C      -44.15320000     -35.96150000     -71.99450000
H      -43.24450000     -35.55000000     -72.43690000
H      -44.00250000     -37.08430000     -71.94060000
C      -44.35730000     -35.32900000     -70.68520000
C      -44.94390000     -35.99740000     -69.63370000
C      -44.00020000     -33.96130000     -70.36200000
H      -45.51960000     -36.93300000     -69.57570000
C      -44.56810000     -33.53330000     -69.14420000
C      -43.28810000     -32.81980000     -70.99470000
C      -43.18390000     -31.69750000     -70.23870000
S      -45.18410000     -34.88290000     -68.25670000
S      -44.05970000     -31.90200000     -68.67660000
H      -42.76620000     -30.73710000     -70.48360000
