40
Properties=species:S:1:pos:R:3 #=T CELL(abcABC):=T 1.889726e+02=T 90.00000=T Traj:=T positionsangstrom=T Step:=T 0=T Bead:=T pbc="F F F"
C      -46.90210000     -31.26630000     -71.08700000
C      -46.71880000     -31.50720000     -72.45710000
C      -47.07870000     -32.81890000     -72.98800000
C      -47.64000000     -33.78850000     -72.16000000
C      -47.78230000     -33.51850000     -70.79110000
C      -47.44750000     -32.26720000     -70.22170000
H      -46.59710000     -30.28060000     -70.71980000
H      -47.01040000     -32.84120000     -74.12880000
H      -48.16050000     -34.29260000     -70.13510000
H      -47.78890000     -32.05020000     -69.23650000
C      -48.10550000     -35.13360000     -72.66800000
H      -48.47230000     -35.00480000     -73.69260000
H      -48.86010000     -35.58260000     -72.06450000
C      -46.01720000     -30.51190000     -73.31390000
H      -46.36100000     -30.62420000     -74.29190000
H      -46.28390000     -29.56840000     -72.95890000
S      -46.80090000     -36.46520000     -72.56410000
S      -44.09560000     -30.47030000     -73.28390000
C      -45.15090000     -35.75710000     -73.00410000
H      -44.83250000     -36.17220000     -73.92130000
H      -45.37950000     -34.70940000     -73.13930000
C      -43.68510000     -32.25090000     -73.60690000
H      -43.11990000     -32.25490000     -74.52590000
H      -44.63670000     -32.80420000     -73.74000000
C      -42.75390000     -32.81680000     -72.54500000
H      -42.47550000     -33.88360000     -72.80710000
H      -41.74400000     -32.38120000     -72.58720000
C      -44.09500000     -36.07700000     -71.91620000
H      -43.14110000     -35.84760000     -72.38620000
H      -44.12280000     -37.10920000     -71.61770000
C      -44.28210000     -35.29440000     -70.66070000
C      -44.99180000     -35.84300000     -69.61910000
C      -43.94580000     -33.91080000     -70.40640000
H      -45.33890000     -36.89040000     -69.46870000
C      -44.46210000     -33.48660000     -69.15030000
C      -43.36450000     -32.75580000     -71.10500000
C      -43.45360000     -31.62580000     -70.33160000
S      -45.14100000     -34.81610000     -68.22790000
S      -44.25120000     -31.80060000     -68.79250000
H      -43.12570000     -30.61650000     -70.58940000
