40
Properties=species:S:1:pos:R:3 #=T CELL(abcABC):=T 1.889726e+02=T 90.00000=T Traj:=T positionsangstrom=T Step:=T 0=T Bead:=T pbc="F F F"
C      -47.16030000     -31.45560000     -71.30880000
C      -46.80130000     -31.77410000     -72.63360000
C      -47.01990000     -33.12290000     -73.09420000
C      -47.64060000     -34.02740000     -72.26490000
C      -47.92180000     -33.73920000     -70.92290000
C      -47.72750000     -32.42860000     -70.45710000
H      -47.02060000     -30.45190000     -70.88860000
H      -46.73380000     -33.41500000     -74.09190000
H      -48.24040000     -34.47850000     -70.32210000
H      -47.84130000     -32.17080000     -69.37090000
C      -47.93390000     -35.41340000     -72.74990000
H      -47.96680000     -35.51280000     -73.85250000
H      -48.83260000     -35.85170000     -72.39030000
C      -46.26140000     -30.69640000     -73.50810000
H      -46.52980000     -30.70470000     -74.60560000
H      -46.56870000     -29.66060000     -73.07110000
S      -46.67360000     -36.64280000     -72.14500000
S      -44.42000000     -30.53310000     -73.44380000
C      -45.19560000     -36.10490000     -73.01910000
H      -44.87680000     -36.86230000     -73.65430000
H      -45.47350000     -35.32110000     -73.72920000
C      -43.68110000     -32.18270000     -73.35900000
H      -43.15510000     -32.41870000     -74.32210000
H      -44.47200000     -32.90430000     -73.42240000
C      -42.66240000     -32.35060000     -72.30040000
H      -42.01910000     -33.20870000     -72.41030000
H      -41.91150000     -31.58930000     -72.39640000
C      -43.92640000     -35.66880000     -72.12450000
H      -43.20170000     -35.01280000     -72.67210000
H      -43.40190000     -36.55560000     -71.81790000
C      -44.36110000     -34.95660000     -70.85510000
C      -44.82980000     -35.72040000     -69.79840000
C      -44.08440000     -33.58180000     -70.47090000
H      -45.01560000     -36.84510000     -69.84660000
C      -44.43500000     -33.36490000     -69.15950000
C      -43.37260000     -32.35330000     -70.94160000
C      -43.23220000     -31.29870000     -70.05450000
S      -45.11410000     -34.69960000     -68.37000000
S      -43.98660000     -31.81100000     -68.50370000
H      -42.78050000     -30.32480000     -70.25650000
