40
Properties=species:S:1:pos:R:3 #=T CELL(abcABC):=T 1.889726e+02=T 90.00000=T Traj:=T positionsangstrom=T Step:=T 0=T Bead:=T pbc="F F F"
C      -47.27620000     -31.70440000     -71.30000000
C      -46.92540000     -31.98140000     -72.60620000
C      -47.26240000     -33.25380000     -73.14030000
C      -47.73040000     -34.26980000     -72.29670000
C      -47.97940000     -33.96150000     -70.90990000
C      -47.83650000     -32.65140000     -70.48060000
H      -47.14620000     -30.69410000     -70.86010000
H      -47.08310000     -33.40890000     -74.25120000
H      -48.33150000     -34.66020000     -70.07430000
H      -48.06540000     -32.45180000     -69.46320000
C      -47.85390000     -35.63260000     -72.89270000
H      -47.94020000     -35.61130000     -73.98260000
H      -48.73140000     -36.13810000     -72.57580000
C      -46.21720000     -31.01530000     -73.50640000
H      -46.20230000     -31.28040000     -74.58850000
H      -46.74410000     -30.03180000     -73.43110000
S      -46.50800000     -36.85380000     -72.65090000
S      -44.46150000     -30.65680000     -73.06540000
C      -45.02050000     -35.77010000     -72.97470000
H      -44.47010000     -35.96070000     -73.90260000
H      -45.29400000     -34.72700000     -73.10600000
C      -43.54490000     -32.32320000     -73.39350000
H      -42.99240000     -32.03990000     -74.34690000
H      -44.21130000     -33.11040000     -73.68780000
C      -42.51440000     -32.68890000     -72.36570000
H      -42.09470000     -33.69820000     -72.54150000
H      -41.60100000     -32.16530000     -72.44410000
C      -44.04370000     -35.71800000     -71.78380000
H      -43.12190000     -35.29380000     -72.20120000
H      -43.91560000     -36.76420000     -71.48070000
C      -44.29810000     -34.92600000     -70.56610000
C      -45.08510000     -35.39160000     -69.50170000
C      -43.89660000     -33.56670000     -70.32270000
H      -45.66050000     -36.30930000     -69.61350000
C      -44.36870000     -33.02960000     -69.09570000
C      -43.16350000     -32.51550000     -70.97370000
C      -43.09310000     -31.30600000     -70.32990000
S      -45.29170000     -34.21820000     -68.19980000
S      -43.98450000     -31.36040000     -68.76420000
H      -42.43840000     -30.48220000     -70.57660000
