40
Properties=species:S:1:pos:R:3 #=T CELL(abcABC):=T 1.889726e+02=T 90.00000=T Traj:=T positionsangstrom=T Step:=T 0=T Bead:=T pbc="F F F"
C      -42.74020000     -31.72120000     -68.87500000
C      -43.41710000     -30.96620000     -69.81910000
C      -44.82050000     -30.79900000     -69.71240000
C      -45.52500000     -31.35290000     -68.63840000
C      -44.78780000     -32.06700000     -67.60110000
C      -43.45860000     -32.18290000     -67.76590000
H      -41.65190000     -31.96270000     -68.89720000
H      -45.31190000     -30.18000000     -70.56250000
H      -45.33790000     -32.59680000     -66.78410000
H      -42.80800000     -32.67350000     -67.03120000
C      -46.97780000     -31.16760000     -68.38640000
H      -47.17490000     -30.08430000     -68.19200000
H      -47.34820000     -31.63920000     -67.45470000
C      -42.52640000     -30.22960000     -70.85200000
H      -42.58350000     -29.18320000     -70.63050000
H      -41.51660000     -30.47760000     -70.90610000
S      -48.02250000     -31.67720000     -69.77430000
S      -43.25150000     -30.38900000     -72.61110000
C      -47.30530000     -33.31560000     -70.20720000
H      -46.25440000     -33.17140000     -70.30170000
H      -47.62990000     -34.08570000     -69.50310000
C      -43.39210000     -32.28150000     -72.64670000
H      -42.79360000     -32.78630000     -71.82430000
H      -42.94230000     -32.46060000     -73.65530000
C      -44.79110000     -32.77560000     -72.70810000
H      -45.38330000     -32.56080000     -71.86540000
H      -45.22200000     -32.25730000     -73.56480000
C      -47.84390000     -33.77390000     -71.54400000
H      -47.85310000     -32.95510000     -72.27600000
H      -48.98080000     -33.91670000     -71.44720000
C      -47.23130000     -35.01620000     -72.12500000
C      -47.91700000     -36.23550000     -72.06560000
C      -45.88450000     -35.18700000     -72.57620000
H      -48.95450000     -36.31780000     -71.87380000
C      -45.63630000     -36.47000000     -73.03790000
C      -44.77450000     -34.29350000     -72.83600000
C      -43.76070000     -34.95450000     -73.48290000
S      -47.04040000     -37.61050000     -72.63110000
S      -44.03150000     -36.66340000     -73.76070000
H      -42.87020000     -34.51180000     -73.98670000
