40
Properties=species:S:1:pos:R:3 #=T CELL(abcABC):=T 1.889726e+02=T 90.00000=T Traj:=T positionsangstrom=T Step:=T 0=T Bead:=T pbc="F F F"
C      -42.57610000     -31.83530000     -68.97110000
C      -43.27460000     -30.88550000     -69.74900000
C      -44.63890000     -30.74060000     -69.59190000
C      -45.37140000     -31.39130000     -68.57780000
C      -44.68670000     -32.36090000     -67.80280000
C      -43.24510000     -32.49590000     -67.95000000
H      -41.45870000     -32.00420000     -69.01450000
H      -45.18740000     -29.98150000     -70.14340000
H      -45.09620000     -32.90690000     -66.95860000
H      -42.68470000     -33.32640000     -67.35420000
C      -46.86780000     -31.02750000     -68.34360000
H      -46.98480000     -29.92190000     -68.21240000
H      -47.16550000     -31.53520000     -67.44820000
C      -42.52400000     -30.22430000     -70.92430000
H      -42.41610000     -29.09400000     -70.72310000
H      -41.48310000     -30.63900000     -71.01270000
S      -48.05380000     -31.52750000     -69.76530000
S      -43.22560000     -30.45410000     -72.56450000
C      -47.61040000     -33.33340000     -70.14230000
H      -46.51930000     -33.48870000     -69.98280000
H      -48.06630000     -34.02820000     -69.44530000
C      -43.33180000     -32.19710000     -72.97160000
H      -42.61360000     -32.73040000     -72.35130000
H      -43.02880000     -32.30420000     -74.00420000
C      -44.70560000     -32.75720000     -72.80760000
H      -44.87440000     -32.55870000     -71.67780000
H      -45.53130000     -32.28900000     -73.24930000
C      -47.90060000     -33.60990000     -71.58190000
H      -47.50130000     -32.83130000     -72.16520000
H      -48.94900000     -33.70660000     -71.73030000
C      -47.28970000     -34.93180000     -72.00910000
C      -47.94500000     -36.17730000     -71.85990000
C      -45.93310000     -35.15320000     -72.55290000
H      -48.94500000     -36.41200000     -71.56320000
C      -45.73310000     -36.48810000     -72.94600000
C      -44.82130000     -34.28040000     -72.99170000
C      -43.80750000     -35.06510000     -73.55250000
S      -47.05610000     -37.50920000     -72.62370000
S      -44.24610000     -36.76630000     -73.64250000
H      -42.89870000     -34.73610000     -74.16490000
