40
Properties=species:S:1:pos:R:3 #=T CELL(abcABC):=T 1.889726e+02=T 90.00000=T Traj:=T positionsangstrom=T Step:=T 0=T Bead:=T pbc="F F F"
C      -47.34210000     -31.63910000     -71.74750000
C      -46.94700000     -32.10500000     -73.01750000
C      -47.08150000     -33.52620000     -73.26160000
C      -47.48580000     -34.42540000     -72.27430000
C      -47.84190000     -33.94860000     -71.03350000
C      -47.69510000     -32.54620000     -70.73360000
H      -47.24420000     -30.62170000     -71.49320000
H      -46.72160000     -33.83830000     -74.21910000
H      -48.22840000     -34.55820000     -70.23770000
H      -48.08410000     -32.10810000     -69.77820000
C      -47.54990000     -35.87810000     -72.70860000
H      -47.78890000     -36.00830000     -73.77680000
H      -48.42350000     -36.35830000     -72.12830000
C      -46.31910000     -31.16760000     -74.09460000
H      -45.88840000     -31.69100000     -75.00240000
H      -46.96560000     -30.31700000     -74.13630000
S      -46.06400000     -36.88830000     -72.21140000
S      -44.74630000     -30.55400000     -73.27420000
C      -44.70360000     -35.73190000     -72.79300000
H      -44.32600000     -36.02380000     -73.80320000
H      -45.11200000     -34.74330000     -72.84870000
C      -43.70150000     -32.09730000     -73.39060000
H      -43.18300000     -32.07510000     -74.34940000
H      -44.46400000     -32.90310000     -73.47280000
C      -42.75550000     -32.33840000     -72.21690000
H      -42.34450000     -33.35770000     -72.40080000
H      -41.90550000     -31.66690000     -72.24670000
C      -43.55350000     -35.66110000     -71.81870000
H      -42.64640000     -35.09210000     -72.24070000
H      -43.16970000     -36.69590000     -71.54240000
C      -44.00840000     -34.89800000     -70.53490000
C      -44.69290000     -35.56880000     -69.50950000
C      -44.01720000     -33.43450000     -70.20730000
H      -44.82180000     -36.63640000     -69.58090000
C      -44.59730000     -33.05250000     -68.97320000
C      -43.46690000     -32.26220000     -70.87750000
C      -43.63200000     -31.05830000     -70.19010000
S      -45.25470000     -34.44910000     -68.23780000
S      -44.49790000     -31.33760000     -68.58450000
H      -43.20320000     -30.05450000     -70.48320000
