40
Properties=species:S:1:pos:R:3 #=T CELL(abcABC):=T 1.889726e+02=T 90.00000=T Traj:=T positionsangstrom=T Step:=T 0=T Bead:=T pbc="F F F"
C      -42.71420000     -32.39770000     -69.54280000
C      -43.33260000     -31.24000000     -70.03240000
C      -44.57250000     -30.84110000     -69.45610000
C      -45.32350000     -31.61160000     -68.50310000
C      -44.61740000     -32.73670000     -68.08400000
C      -43.37630000     -33.06490000     -68.57140000
H      -41.78010000     -32.69920000     -69.87930000
H      -44.99160000     -29.97080000     -69.80200000
H      -44.93890000     -33.37840000     -67.31550000
H      -42.85600000     -34.07870000     -68.23700000
C      -46.75360000     -31.26760000     -68.14790000
H      -46.91810000     -30.26740000     -67.81880000
H      -47.08820000     -32.01450000     -67.39670000
C      -42.62410000     -30.28400000     -70.90050000
H      -42.68700000     -29.27410000     -70.51680000
H      -41.51300000     -30.50090000     -70.90450000
S      -47.84790000     -31.34310000     -69.60750000
S      -43.32620000     -30.33230000     -72.66750000
C      -47.28650000     -33.01120000     -70.28720000
H      -46.19960000     -33.01090000     -70.31940000
H      -47.48360000     -33.79030000     -69.47470000
C      -43.22890000     -32.15340000     -73.06250000
H      -42.43920000     -32.70080000     -72.52900000
H      -43.00970000     -32.19090000     -74.10470000
C      -44.63250000     -32.77790000     -72.68200000
H      -44.98510000     -32.50360000     -71.73350000
H      -45.31600000     -32.17370000     -73.30250000
C      -47.87540000     -33.35970000     -71.64360000
H      -47.55660000     -32.59960000     -72.37950000
H      -48.97510000     -33.40670000     -71.61190000
C      -47.31250000     -34.72400000     -71.91830000
C      -48.03240000     -35.87430000     -71.77690000
C      -45.97400000     -35.05970000     -72.52060000
H      -49.05310000     -36.01560000     -71.32600000
C      -45.79850000     -36.40560000     -72.80180000
C      -44.82140000     -34.28030000     -72.91100000
C      -43.80390000     -35.07210000     -73.44030000
S      -47.23550000     -37.36660000     -72.32610000
S      -44.26560000     -36.73840000     -73.59660000
H      -42.81390000     -34.69480000     -73.82720000
