40
Properties=species:S:1:pos:R:3 #=T CELL(abcABC):=T 1.889726e+02=T 90.00000=T Traj:=T positionsangstrom=T Step:=T 0=T Bead:=T pbc="F F F"
C      -42.69850000     -32.53560000     -69.92000000
C      -43.20370000     -31.25290000     -70.12060000
C      -44.44660000     -30.94870000     -69.58030000
C      -45.05490000     -31.75570000     -68.64260000
C      -44.45380000     -32.98010000     -68.31800000
C      -43.28120000     -33.33260000     -68.95100000
H      -41.81830000     -32.83800000     -70.43630000
H      -44.89400000     -29.95460000     -69.68850000
H      -44.89600000     -33.75750000     -67.63010000
H      -42.71920000     -34.26110000     -68.69580000
C      -46.32830000     -31.45530000     -67.96520000
H      -46.37610000     -30.39060000     -67.50650000
H      -46.59830000     -32.06910000     -67.08670000
C      -42.55400000     -30.28900000     -71.07270000
H      -42.60070000     -29.24320000     -70.67580000
H      -41.53400000     -30.60930000     -71.11220000
S      -47.66440000     -31.61630000     -69.31050000
S      -43.21920000     -30.28320000     -72.85500000
C      -47.36100000     -33.26260000     -70.05640000
H      -46.26050000     -33.59600000     -70.05900000
H      -47.95250000     -34.05220000     -69.52580000
C      -43.41470000     -32.09210000     -73.22410000
H      -42.59690000     -32.69040000     -72.80660000
H      -43.35110000     -32.20540000     -74.29890000
C      -44.80570000     -32.59210000     -72.75270000
H      -44.91790000     -32.32480000     -71.65540000
H      -45.54860000     -32.06130000     -73.37730000
C      -47.87850000     -33.22680000     -71.49320000
H      -47.37230000     -32.43770000     -72.05670000
H      -48.95150000     -32.97630000     -71.69090000
C      -47.50400000     -34.57080000     -72.06970000
C      -48.28790000     -35.66860000     -71.91140000
C      -46.17550000     -34.86280000     -72.52730000
H      -49.30300000     -35.76380000     -71.63340000
C      -45.99610000     -36.23940000     -72.74420000
C      -44.92580000     -34.08730000     -72.82570000
C      -43.90800000     -34.94790000     -73.17330000
S      -47.37040000     -37.20760000     -72.39310000
S      -44.34800000     -36.67340000     -73.21490000
H      -42.87430000     -34.77210000     -73.33530000
