40
Properties=species:S:1:pos:R:3 #=T CELL(abcABC):=T 1.889726e+02=T 90.00000=T Traj:=T positionsangstrom=T Step:=T 0=T Bead:=T pbc="F F F"
C      -42.49950000     -32.59930000     -69.94680000
C      -42.98780000     -31.31300000     -70.24280000
C      -44.14830000     -30.92790000     -69.58260000
C      -44.91640000     -31.77310000     -68.73630000
C      -44.36450000     -33.04950000     -68.46170000
C      -43.14380000     -33.47840000     -69.04640000
H      -41.64640000     -32.99930000     -70.41510000
H      -44.67300000     -30.00060000     -70.04940000
H      -44.81910000     -33.54790000     -67.62780000
H      -42.84380000     -34.49530000     -68.83310000
C      -46.21960000     -31.35820000     -68.05490000
H      -46.15210000     -30.35980000     -67.90650000
H      -46.35480000     -31.98180000     -67.17390000
C      -42.34550000     -30.37190000     -71.24850000
H      -42.52000000     -29.36530000     -70.84110000
H      -41.31780000     -30.46960000     -71.59310000
S      -47.72850000     -31.54000000     -69.10860000
S      -43.34160000     -30.28410000     -72.86970000
C      -47.54880000     -33.23620000     -69.92890000
H      -46.54520000     -33.67210000     -69.84390000
H      -48.12390000     -33.90190000     -69.30590000
C      -43.49820000     -32.08790000     -73.12330000
H      -42.72550000     -32.53900000     -72.48200000
H      -43.36700000     -32.29690000     -74.17540000
C      -44.83340000     -32.64550000     -72.73070000
H      -45.09840000     -32.34020000     -71.69050000
H      -45.58790000     -32.14940000     -73.22640000
C      -47.96220000     -33.20880000     -71.38700000
H      -47.51980000     -32.37220000     -71.90070000
H      -49.04420000     -33.07800000     -71.43220000
C      -47.45350000     -34.51000000     -72.04110000
C      -48.26550000     -35.57910000     -71.99640000
C      -46.16850000     -34.88910000     -72.53040000
H      -49.21040000     -35.56110000     -71.57780000
C      -46.05140000     -36.30250000     -72.72250000
C      -44.95200000     -34.13940000     -72.83210000
C      -43.91890000     -34.99490000     -73.11010000
S      -47.56270000     -37.11840000     -72.45440000
S      -44.34570000     -36.70530000     -73.19400000
H      -42.96550000     -34.75500000     -73.40430000
