40
Properties=species:S:1:pos:R:3 #=T CELL(abcABC):=T 1.889726e+02=T 90.00000=T Traj:=T positionsangstrom=T Step:=T 0=T Bead:=T pbc="F F F"
C      -47.21410000     -31.51400000     -71.53130000
C      -46.81040000     -31.84030000     -72.83600000
C      -46.88440000     -33.15470000     -73.18440000
C      -47.26050000     -34.22480000     -72.32680000
C      -47.56630000     -33.83880000     -70.98910000
C      -47.55070000     -32.51680000     -70.57260000
H      -47.01080000     -30.44490000     -71.23110000
H      -46.76610000     -33.43010000     -74.20390000
H      -47.71770000     -34.63380000     -70.28170000
H      -47.80400000     -32.24910000     -69.58450000
C      -47.28650000     -35.58160000     -72.95240000
H      -47.27130000     -35.58690000     -74.06360000
H      -48.13430000     -36.24940000     -72.54830000
C      -46.41570000     -30.84770000     -73.84030000
H      -46.68300000     -31.04020000     -74.89590000
H      -46.83730000     -29.84590000     -73.71070000
S      -45.88020000     -36.79010000     -72.43720000
S      -44.57890000     -30.65470000     -74.08110000
C      -44.42190000     -35.68790000     -72.82650000
H      -43.85640000     -36.14270000     -73.68990000
H      -44.82440000     -34.74300000     -73.18550000
C      -43.72610000     -32.21530000     -73.39640000
H      -42.95290000     -32.45980000     -74.10970000
H      -44.44880000     -33.04560000     -73.42340000
C      -43.08280000     -32.00150000     -72.01840000
H      -42.18760000     -32.64940000     -71.90720000
H      -42.72270000     -31.00330000     -71.93870000
C      -43.41820000     -35.53060000     -71.64060000
H      -42.68820000     -34.79550000     -71.90180000
H      -42.88580000     -36.41980000     -71.40630000
C      -44.00020000     -34.87530000     -70.42210000
C      -44.36960000     -35.71930000     -69.39550000
C      -44.11230000     -33.44060000     -70.07550000
H      -44.45400000     -36.76670000     -69.57330000
C      -44.72040000     -33.30830000     -68.82610000
C      -43.95500000     -32.20920000     -70.72820000
C      -44.35440000     -31.06750000     -70.00530000
S      -45.00760000     -34.87370000     -68.00600000
S      -45.21630000     -31.67350000     -68.52370000
H      -44.33140000     -30.00260000     -70.17430000
