40
Properties=species:S:1:pos:R:3 #=T CELL(abcABC):=T 1.889726e+02=T 90.00000=T Traj:=T positionsangstrom=T Step:=T 0=T Bead:=T pbc="F F F"
C      -47.19440000     -31.61430000     -71.57390000
C      -46.84870000     -31.84850000     -72.88380000
C      -46.84420000     -33.23230000     -73.30310000
C      -47.30630000     -34.22020000     -72.45890000
C      -47.65740000     -33.92950000     -71.15770000
C      -47.59140000     -32.59130000     -70.71180000
H      -47.07000000     -30.58340000     -71.29450000
H      -46.54300000     -33.48710000     -74.33180000
H      -47.89940000     -34.70490000     -70.51990000
H      -47.90440000     -32.31490000     -69.69060000
C      -47.24780000     -35.70950000     -72.89160000
H      -47.31050000     -35.77090000     -73.96650000
H      -48.10110000     -36.21610000     -72.50800000
C      -46.45230000     -30.72640000     -73.72560000
H      -46.93100000     -30.80260000     -74.76460000
H      -46.70850000     -29.76520000     -73.26540000
S      -45.74230000     -36.60540000     -72.22650000
S      -44.57890000     -30.55240000     -73.99350000
C      -44.26000000     -35.58860000     -72.72480000
H      -43.73190000     -36.18960000     -73.46350000
H      -44.54350000     -34.62420000     -73.05760000
C      -43.82530000     -32.17690000     -73.42150000
H      -43.13040000     -32.50810000     -74.22600000
H      -44.68180000     -32.87900000     -73.30870000
C      -43.14320000     -32.10310000     -72.07700000
H      -42.38540000     -32.95710000     -72.08340000
H      -42.55050000     -31.20130000     -72.06280000
C      -43.30880000     -35.59610000     -71.48690000
H      -42.40500000     -35.03580000     -71.85950000
H      -43.06650000     -36.69530000     -71.31040000
C      -43.95200000     -34.95870000     -70.35590000
C      -44.32320000     -35.69810000     -69.29320000
C      -44.24930000     -33.51740000     -70.16520000
H      -44.04260000     -36.75640000     -69.26550000
C      -44.93480000     -33.35410000     -68.96680000
C      -43.97220000     -32.23400000     -70.81860000
C      -44.28340000     -31.16960000     -70.01830000
S      -45.20470000     -34.85850000     -68.10450000
S      -45.07770000     -31.67990000     -68.57080000
H      -44.17480000     -30.15190000     -70.14800000
