40
Properties=species:S:1:pos:R:3 #=T CELL(abcABC):=T 1.889726e+02=T 90.00000=T Traj:=T positionsangstrom=T Step:=T 0=T Bead:=T pbc="F F F"
C      -47.37760000     -31.64410000     -71.58710000
C      -46.96650000     -31.90640000     -72.90340000
C      -46.88080000     -33.29650000     -73.27440000
C      -47.19980000     -34.35400000     -72.42690000
C      -47.59050000     -33.99530000     -71.13120000
C      -47.72170000     -32.65630000     -70.68740000
H      -47.59110000     -30.62130000     -71.24960000
H      -46.60560000     -33.43830000     -74.32130000
H      -47.86420000     -34.80860000     -70.47290000
H      -48.02420000     -32.46330000     -69.64790000
C      -47.09050000     -35.79130000     -72.92360000
H      -46.78040000     -35.81920000     -74.02000000
H      -48.01910000     -36.29250000     -72.90250000
C      -46.48220000     -30.85900000     -73.92050000
H      -46.81700000     -31.25320000     -74.84930000
H      -47.04530000     -29.94330000     -73.72640000
S      -45.72010000     -36.69730000     -72.10430000
S      -44.68590000     -30.40040000     -73.73250000
C      -44.32490000     -35.71270000     -72.73200000
H      -43.85170000     -36.25650000     -73.60090000
H      -44.70990000     -34.73430000     -73.17250000
C      -43.84500000     -31.93060000     -73.43710000
H      -43.13350000     -32.05950000     -74.20900000
H      -44.50400000     -32.73640000     -73.63240000
C      -43.00840000     -32.07240000     -72.15380000
H      -42.29600000     -32.86840000     -72.34450000
H      -42.36060000     -31.14200000     -72.05340000
C      -43.27080000     -35.54010000     -71.57620000
H      -42.48270000     -34.90150000     -71.89930000
H      -42.82710000     -36.48920000     -71.36690000
C      -43.87990000     -34.96710000     -70.30830000
C      -44.43780000     -35.75940000     -69.33910000
C      -44.08450000     -33.55190000     -70.13370000
H      -44.33620000     -36.82060000     -69.39730000
C      -44.70000000     -33.31730000     -68.93520000
C      -43.77900000     -32.28140000     -70.85450000
C      -44.35530000     -31.22770000     -70.24100000
S      -45.26790000     -34.75590000     -68.13960000
S      -45.06390000     -31.61220000     -68.64770000
H      -44.41870000     -30.23400000     -70.56160000
