40
Properties=species:S:1:pos:R:3 #=T CELL(abcABC):=T 1.889726e+02=T 90.00000=T Traj:=T positionsangstrom=T Step:=T 0=T Bead:=T pbc="F F F"
C      -47.58780000     -31.86270000     -71.77080000
C      -46.98260000     -32.17870000     -73.01650000
C      -46.83490000     -33.52500000     -73.37490000
C      -47.20950000     -34.55670000     -72.52350000
C      -47.78270000     -34.21740000     -71.26710000
C      -47.94820000     -32.88150000     -70.90180000
H      -47.61560000     -30.86380000     -71.46770000
H      -46.38960000     -33.70340000     -74.33790000
H      -48.06280000     -35.03440000     -70.54450000
H      -48.49990000     -32.71980000     -69.98840000
C      -47.02550000     -36.00910000     -72.96750000
H      -46.98010000     -36.11240000     -74.02130000
H      -47.96260000     -36.61140000     -72.66430000
C      -46.45690000     -31.04170000     -73.89800000
H      -46.17200000     -31.47320000     -74.86400000
H      -47.15150000     -30.22460000     -74.09080000
S      -45.65720000     -36.82590000     -72.15980000
S      -44.90500000     -30.26870000     -73.13020000
C      -44.26610000     -35.66400000     -72.62350000
H      -43.84430000     -36.02300000     -73.61510000
H      -44.65610000     -34.67560000     -72.81680000
C      -43.68980000     -31.63120000     -73.46740000
H      -43.07410000     -31.38990000     -74.29420000
H      -44.20930000     -32.52700000     -73.73030000
C      -42.92360000     -32.13190000     -72.22980000
H      -42.39470000     -33.07500000     -72.44590000
H      -42.13970000     -31.40540000     -71.98090000
C      -43.23500000     -35.50810000     -71.55530000
H      -42.40020000     -35.00300000     -71.99000000
H      -42.90440000     -36.52120000     -71.25440000
C      -43.90500000     -34.86460000     -70.40290000
C      -44.21680000     -35.58230000     -69.24960000
C      -44.13610000     -33.48250000     -70.22470000
H      -44.30930000     -36.66800000     -69.11180000
C      -44.87960000     -33.15840000     -69.08160000
C      -43.83110000     -32.24820000     -70.99770000
C      -44.23350000     -31.15680000     -70.31010000
S      -45.09210000     -34.58880000     -68.04680000
S      -45.05660000     -31.42950000     -68.78960000
H      -43.97800000     -30.10610000     -70.58590000
