40
Properties=species:S:1:pos:R:3 #=T CELL(abcABC):=T 1.889726e+02=T 90.00000=T Traj:=T positionsangstrom=T Step:=T 0=T Bead:=T pbc="F F F"
C      -42.09310000     -32.43300000     -69.64110000
C      -42.79780000     -31.48590000     -70.32670000
C      -44.03920000     -30.98370000     -69.85080000
C      -44.58450000     -31.45520000     -68.66300000
C      -43.83860000     -32.44750000     -67.94330000
C      -42.65830000     -32.88750000     -68.43550000
H      -41.05570000     -32.71610000     -69.71580000
H      -44.56240000     -30.10590000     -70.35900000
H      -44.19450000     -32.88780000     -67.02070000
H      -42.09970000     -33.55180000     -67.76090000
C      -45.81650000     -30.79640000     -68.07790000
H      -45.68160000     -29.66870000     -68.12530000
H      -45.99840000     -31.02970000     -66.99160000
C      -42.08720000     -30.88550000     -71.55140000
H      -41.76960000     -29.82320000     -71.32160000
H      -41.18630000     -31.40650000     -71.84210000
S      -47.30560000     -31.37020000     -69.01940000
S      -43.20780000     -30.66340000     -73.00840000
C      -46.90010000     -33.07530000     -69.55690000
H      -45.75820000     -33.22420000     -69.68930000
H      -47.17670000     -33.71230000     -68.72470000
C      -43.56150000     -32.44710000     -73.22830000
H      -42.79070000     -33.06850000     -72.85000000
H      -43.63480000     -32.60600000     -74.31350000
C      -44.95650000     -32.87730000     -72.59180000
H      -44.94780000     -32.89100000     -71.54220000
H      -45.84280000     -32.24300000     -73.01010000
C      -47.68010000     -33.36150000     -70.82620000
H      -47.65470000     -32.63350000     -71.61050000
H      -48.72420000     -33.48940000     -70.49260000
C      -47.45080000     -34.69940000     -71.47570000
C      -48.33620000     -35.74970000     -71.34900000
C      -46.37100000     -34.99770000     -72.37320000
H      -49.14870000     -35.80640000     -70.67840000
C      -46.54410000     -36.23050000     -72.91860000
C      -45.31600000     -34.27120000     -72.97670000
C      -44.69950000     -34.98060000     -73.94300000
S      -47.82290000     -37.17520000     -72.24090000
S      -45.36020000     -36.59830000     -74.19160000
H      -43.87840000     -34.71300000     -74.66670000
