40
Properties=species:S:1:pos:R:3 #=T CELL(abcABC):=T 1.889726e+02=T 90.00000=T Traj:=T positionsangstrom=T Step:=T 0=T Bead:=T pbc="F F F"
C      -42.03820000     -32.47750000     -69.68770000
C      -42.70770000     -31.39070000     -70.34720000
C      -43.85820000     -30.82860000     -69.80750000
C      -44.42160000     -31.29020000     -68.56500000
C      -43.74660000     -32.33050000     -67.93650000
C      -42.59040000     -32.90470000     -68.51740000
H      -41.12570000     -32.99700000     -69.98590000
H      -44.41360000     -30.04480000     -70.24350000
H      -43.96300000     -32.72460000     -66.95540000
H      -42.20730000     -33.77860000     -67.93650000
C      -45.71670000     -30.76650000     -67.93110000
H      -45.76190000     -29.70910000     -68.07760000
H      -45.84270000     -31.09920000     -66.91400000
C      -42.05070000     -30.82570000     -71.57960000
H      -41.70830000     -29.82690000     -71.32280000
H      -41.16600000     -31.41460000     -71.84390000
S      -47.24900000     -31.34190000     -68.93530000
S      -43.12300000     -30.71620000     -73.05240000
C      -46.81310000     -33.02400000     -69.58410000
H      -45.86630000     -33.00350000     -70.07810000
H      -46.71680000     -33.73100000     -68.77570000
C      -43.70790000     -32.40340000     -73.59330000
H      -42.86490000     -33.06790000     -73.64460000
H      -44.16040000     -32.22150000     -74.60510000
C      -44.84140000     -32.90230000     -72.61360000
H      -44.36720000     -32.88690000     -71.62310000
H      -45.55370000     -32.12340000     -72.45680000
C      -47.81020000     -33.50500000     -70.67340000
H      -47.77530000     -32.60820000     -71.36900000
H      -48.80810000     -33.54830000     -70.30150000
C      -47.42900000     -34.81240000     -71.32200000
C      -48.31220000     -35.89670000     -71.14480000
C      -46.42520000     -35.02550000     -72.36430000
H      -49.18200000     -35.96770000     -70.48590000
C      -46.65720000     -36.29240000     -72.97040000
C      -45.33590000     -34.30080000     -72.95550000
C      -44.82780000     -34.99570000     -74.02730000
S      -47.96090000     -37.18210000     -72.29980000
S      -45.54850000     -36.60570000     -74.19620000
H      -43.99080000     -34.69510000     -74.64250000
