40
Properties=species:S:1:pos:R:3 #=T CELL(abcABC):=T 1.889726e+02=T 90.00000=T Traj:=T positionsangstrom=T Step:=T 0=T Bead:=T pbc="F F F"
C      -41.95420000     -32.50320000     -69.63380000
C      -42.62130000     -31.52170000     -70.39560000
C      -43.69400000     -30.83150000     -69.80490000
C      -44.26650000     -31.28100000     -68.56150000
C      -43.75680000     -32.47910000     -67.93890000
C      -42.53440000     -32.96620000     -68.47140000
H      -41.03950000     -32.96660000     -70.02180000
H      -44.07140000     -29.98680000     -70.25270000
H      -44.20440000     -33.00180000     -67.04170000
H      -42.06190000     -33.69080000     -67.81520000
C      -45.64590000     -30.63210000     -68.05800000
H      -45.71950000     -29.55350000     -68.22810000
H      -45.80640000     -30.72520000     -66.95120000
C      -42.02580000     -30.97570000     -71.68580000
H      -41.50050000     -30.03150000     -71.46900000
H      -41.19590000     -31.69980000     -71.98620000
S      -47.05030000     -31.34580000     -69.01660000
S      -43.22380000     -30.64090000     -73.08630000
C      -46.59400000     -33.08600000     -69.58020000
H      -45.54740000     -33.11030000     -69.93150000
H      -46.79320000     -33.71340000     -68.62380000
C      -43.95320000     -32.26390000     -73.49870000
H      -43.16080000     -32.95480000     -73.91450000
H      -44.55690000     -31.94890000     -74.32640000
C      -44.90240000     -32.94460000     -72.47720000
H      -44.44960000     -33.13920000     -71.46140000
H      -45.74640000     -32.32490000     -72.26740000
C      -47.66000000     -33.41110000     -70.59640000
H      -47.79340000     -32.62500000     -71.35530000
H      -48.61290000     -33.46440000     -70.04900000
C      -47.47960000     -34.75470000     -71.38210000
C      -48.38580000     -35.81850000     -71.08000000
C      -46.57820000     -34.94150000     -72.48090000
H      -49.16980000     -35.83290000     -70.32010000
C      -46.83310000     -36.22610000     -73.03540000
C      -45.35620000     -34.32360000     -73.01850000
C      -44.79190000     -35.13770000     -73.97820000
S      -48.05880000     -37.15910000     -72.14190000
S      -45.64890000     -36.64690000     -74.24050000
H      -43.91260000     -34.87080000     -74.51830000
