40
Properties=species:S:1:pos:R:3 #=T CELL(abcABC):=T 1.889726e+02=T 90.00000=T Traj:=T positionsangstrom=T Step:=T 0=T Bead:=T pbc="F F F"
C      -41.68720000     -32.55110000     -70.07560000
C      -42.43300000     -31.57890000     -70.78830000
C      -43.65550000     -31.15270000     -70.12320000
C      -43.98080000     -31.58920000     -68.85790000
C      -43.07150000     -32.39510000     -68.15200000
C      -41.99500000     -32.94580000     -68.77120000
H      -40.69330000     -32.96070000     -70.40390000
H      -44.32390000     -30.45140000     -70.67530000
H      -43.22080000     -32.62790000     -67.13010000
H      -41.35320000     -33.65790000     -68.18830000
C      -45.21050000     -31.26630000     -68.08680000
H      -44.99350000     -30.35080000     -67.54000000
H      -45.36770000     -32.00190000     -67.26810000
C      -42.02590000     -30.87820000     -72.11350000
H      -41.57090000     -29.88190000     -72.03050000
H      -41.22840000     -31.53960000     -72.43900000
S      -46.77630000     -31.11670000     -68.97890000
S      -43.49700000     -30.73890000     -73.17350000
C      -47.01760000     -32.84670000     -69.82930000
H      -46.04990000     -33.16020000     -70.14550000
H      -47.34050000     -33.47900000     -68.98810000
C      -43.87310000     -32.54490000     -73.48430000
H      -43.15670000     -33.15560000     -72.91280000
H      -43.63210000     -32.75790000     -74.56420000
C      -45.36170000     -32.83550000     -73.00160000
H      -45.45750000     -32.49690000     -71.93910000
H      -46.05360000     -32.27520000     -73.58760000
C      -48.04980000     -32.99590000     -70.98330000
H      -47.84830000     -32.30080000     -71.74630000
H      -49.01530000     -32.79590000     -70.62120000
C      -47.85180000     -34.42560000     -71.45580000
C      -48.70950000     -35.46190000     -71.07910000
C      -46.74000000     -34.89280000     -72.27990000
H      -49.68930000     -35.43540000     -70.54510000
C      -46.82370000     -36.26980000     -72.46900000
C      -45.62860000     -34.33660000     -72.99930000
C      -44.92000000     -35.24560000     -73.68620000
S      -48.09160000     -36.99710000     -71.59390000
S      -45.63080000     -36.87110000     -73.64660000
H      -43.88290000     -35.14170000     -74.07150000
