40
Properties=species:S:1:pos:R:3 #=T CELL(abcABC):=T 1.889726e+02=T 90.00000=T Traj:=T positionsangstrom=T Step:=T 0=T Bead:=T pbc="F F F"
C      -41.76180000     -32.44610000     -70.56990000
C      -42.53240000     -31.33570000     -70.88580000
C      -43.54330000     -30.80710000     -70.02660000
C      -43.84700000     -31.56210000     -68.84790000
C      -43.11000000     -32.70910000     -68.57110000
C      -42.07930000     -33.11060000     -69.42190000
H      -40.96170000     -32.86630000     -71.16230000
H      -44.17220000     -30.04220000     -70.47050000
H      -43.30580000     -33.27150000     -67.68880000
H      -41.41790000     -33.89560000     -69.15930000
C      -45.05340000     -31.32030000     -68.02910000
H      -45.05320000     -30.32490000     -67.56430000
H      -45.21070000     -32.03610000     -67.23470000
C      -42.30380000     -30.44710000     -72.11040000
H      -42.32750000     -29.42790000     -71.67260000
H      -41.34280000     -30.54610000     -72.59720000
S      -46.62080000     -31.16030000     -69.05270000
S      -43.59350000     -30.67150000     -73.42840000
C      -46.84710000     -32.88170000     -69.71980000
H      -45.93700000     -33.18960000     -70.16010000
H      -47.06050000     -33.59660000     -68.91710000
C      -43.96600000     -32.53540000     -73.25560000
H      -43.12740000     -33.06080000     -72.69830000
H      -43.83570000     -32.95180000     -74.24320000
C      -45.27750000     -32.92820000     -72.65090000
H      -45.14090000     -32.79640000     -71.56850000
H      -46.01830000     -32.22130000     -72.97140000
C      -47.87660000     -33.02110000     -70.86470000
H      -47.54780000     -32.35870000     -71.61290000
H      -48.79590000     -32.72530000     -70.48220000
C      -47.82570000     -34.48370000     -71.29740000
C      -48.65190000     -35.48040000     -70.89490000
C      -46.75240000     -34.97470000     -72.10640000
H      -49.47740000     -35.37190000     -70.24590000
C      -46.79840000     -36.35280000     -72.30210000
C      -45.66450000     -34.35880000     -72.89720000
C      -44.97920000     -35.26490000     -73.64740000
S      -48.18310000     -37.06450000     -71.45890000
S      -45.66180000     -36.92040000     -73.50690000
H      -44.08780000     -35.13030000     -74.26130000
