40
Properties=species:S:1:pos:R:3 #=T CELL(abcABC):=T 1.889726e+02=T 90.00000=T Traj:=T positionsangstrom=T Step:=T 0=T Bead:=T pbc="F F F"
C      -47.40590000     -32.27290000     -70.66200000
C      -47.54820000     -32.26040000     -72.04660000
C      -47.61010000     -33.44160000     -72.79540000
C      -47.49980000     -34.70840000     -72.16310000
C      -47.39870000     -34.74530000     -70.75660000
C      -47.29820000     -33.53060000     -70.07360000
H      -47.14450000     -31.45190000     -70.02700000
H      -47.79030000     -33.38420000     -73.89920000
H      -47.50350000     -35.76450000     -70.26570000
H      -47.34080000     -33.52350000     -68.96990000
C      -47.29460000     -36.08900000     -72.84940000
H      -47.40000000     -36.02110000     -73.91780000
H      -47.98120000     -36.85970000     -72.50130000
C      -47.58680000     -30.94890000     -72.73630000
H      -48.04410000     -31.01940000     -73.70370000
H      -48.21420000     -30.22200000     -72.25030000
S      -45.61690000     -36.74670000     -72.46830000
S      -46.00040000     -30.02570000     -72.89150000
C      -44.45770000     -35.47270000     -73.16310000
H      -44.18940000     -35.82670000     -74.24050000
H      -45.04180000     -34.56400000     -73.32580000
C      -45.01720000     -31.27980000     -73.73610000
H      -44.51350000     -30.86270000     -74.60210000
H      -45.68160000     -32.05480000     -73.99540000
C      -43.79810000     -31.91390000     -72.95530000
H      -43.60540000     -32.76750000     -73.61150000
H      -42.94850000     -31.17180000     -73.11720000
C      -43.17270000     -35.34230000     -72.30860000
H      -42.51160000     -34.62980000     -72.84400000
H      -42.66660000     -36.28060000     -72.27100000
C      -43.51530000     -34.80280000     -70.91490000
C      -43.42970000     -35.61040000     -69.74690000
C      -43.77470000     -33.39110000     -70.59090000
H      -43.38620000     -36.71110000     -69.65230000
C      -43.80090000     -33.19270000     -69.21100000
C      -43.95490000     -32.15720000     -71.42050000
C      -44.29320000     -31.08660000     -70.61110000
S      -43.88410000     -34.66160000     -68.27190000
S      -44.33330000     -31.50480000     -68.90630000
H      -44.25490000     -30.05230000     -70.87130000
