40
Properties=species:S:1:pos:R:3 #=T CELL(abcABC):=T 1.889726e+02=T 90.00000=T Traj:=T positionsangstrom=T Step:=T 0=T Bead:=T pbc="F F F"
C      -47.78620000     -32.33670000     -70.61210000
C      -47.84250000     -32.36080000     -72.02790000
C      -47.88410000     -33.59350000     -72.75560000
C      -47.74130000     -34.79040000     -72.03090000
C      -47.49340000     -34.74900000     -70.63040000
C      -47.68540000     -33.54770000     -69.94540000
H      -48.04890000     -31.42810000     -70.00090000
H      -48.09520000     -33.59660000     -73.79120000
H      -47.44440000     -35.62040000     -70.05600000
H      -47.54830000     -33.68120000     -68.85790000
C      -47.57370000     -36.02530000     -72.82670000
H      -47.88940000     -35.76210000     -73.81750000
H      -48.26920000     -36.81080000     -72.58220000
C      -47.88070000     -31.02480000     -72.70620000
H      -48.43780000     -31.12020000     -73.63300000
H      -48.36000000     -30.31260000     -72.11950000
S      -45.81510000     -36.80790000     -72.78780000
S      -46.13320000     -30.41140000     -72.99780000
C      -44.59540000     -35.48430000     -73.11960000
H      -44.38190000     -35.54340000     -74.27350000
H      -45.18250000     -34.52040000     -72.93490000
C      -45.05060000     -31.84910000     -73.65520000
H      -45.13570000     -31.79000000     -74.71890000
H      -45.60480000     -32.69800000     -73.29650000
C      -43.74940000     -31.88730000     -72.89600000
H      -43.12770000     -32.72550000     -73.34150000
H      -43.16520000     -31.03110000     -73.08230000
C      -43.25790000     -35.33140000     -72.25680000
H      -42.66000000     -34.66050000     -72.89540000
H      -42.78060000     -36.37450000     -72.13940000
C      -43.39020000     -34.67130000     -70.90650000
C      -43.22580000     -35.34930000     -69.73270000
C      -43.59140000     -33.26270000     -70.64000000
H      -42.84560000     -36.40010000     -69.70330000
C      -43.59970000     -32.97090000     -69.22530000
C      -43.86150000     -32.08830000     -71.37570000
C      -44.03940000     -30.91520000     -70.63630000
S      -43.29020000     -34.34750000     -68.26110000
S      -43.97400000     -31.34710000     -68.83620000
H      -44.44990000     -29.98700000     -70.93620000
