40
Properties=species:S:1:pos:R:3 #=T CELL(abcABC):=T 1.889726e+02=T 90.00000=T Traj:=T positionsangstrom=T Step:=T 0=T Bead:=T pbc="F F F"
C      -48.07890000     -32.43380000     -70.71990000
C      -48.00290000     -32.51860000     -72.12910000
C      -47.79340000     -33.78630000     -72.62210000
C      -47.72040000     -34.94590000     -71.84240000
C      -47.71880000     -34.82390000     -70.44170000
C      -47.94060000     -33.57090000     -69.89290000
H      -48.30640000     -31.47010000     -70.24380000
H      -47.78570000     -33.94150000     -73.69680000
H      -47.46110000     -35.66560000     -69.74380000
H      -47.92730000     -33.38920000     -68.79870000
C      -47.59140000     -36.28910000     -72.44950000
H      -47.85880000     -36.43970000     -73.43960000
H      -48.02880000     -37.10500000     -71.84940000
C      -47.99170000     -31.32190000     -72.96220000
H      -48.33070000     -31.51850000     -73.96130000
H      -48.60000000     -30.54860000     -72.50720000
S      -45.73170000     -36.77690000     -72.39660000
S      -46.42470000     -30.37330000     -73.17110000
C      -44.90860000     -35.26210000     -73.08290000
H      -44.88370000     -35.41090000     -74.22180000
H      -45.50870000     -34.35350000     -72.98770000
C      -45.16170000     -31.67220000     -73.61920000
H      -44.98630000     -31.57940000     -74.64530000
H      -45.57700000     -32.61560000     -73.52830000
C      -43.76910000     -31.52760000     -72.92730000
H      -43.16180000     -32.10070000     -73.58500000
H      -43.35950000     -30.43780000     -72.97790000
C      -43.51640000     -35.08570000     -72.49460000
H      -42.85800000     -34.56390000     -73.23720000
H      -43.03320000     -36.09260000     -72.52770000
C      -43.50820000     -34.52970000     -71.10260000
C      -43.21910000     -35.32320000     -70.07030000
C      -43.71540000     -33.15540000     -70.63800000
H      -43.33150000     -36.40240000     -70.13690000
C      -43.53560000     -33.01310000     -69.22580000
C      -43.71000000     -31.85690000     -71.36840000
C      -43.51800000     -30.81210000     -70.48720000
S      -43.38830000     -34.55750000     -68.44790000
S      -43.21170000     -31.34330000     -68.81040000
H      -43.21580000     -29.75290000     -70.74220000
