40
Properties=species:S:1:pos:R:3 #=T CELL(abcABC):=T 1.889726e+02=T 90.00000=T Traj:=T positionsangstrom=T Step:=T 0=T Bead:=T pbc="F F F"
C      -48.13530000     -32.36040000     -70.72180000
C      -48.00300000     -32.48940000     -72.11590000
C      -47.90260000     -33.82250000     -72.58480000
C      -47.80230000     -34.93870000     -71.78500000
C      -47.91270000     -34.76520000     -70.41950000
C      -48.00240000     -33.46260000     -69.90150000
H      -48.32670000     -31.34960000     -70.25050000
H      -47.88300000     -33.92700000     -73.66180000
H      -48.14030000     -35.61370000     -69.82520000
H      -47.96580000     -33.30040000     -68.76680000
C      -47.42420000     -36.34140000     -72.38030000
H      -47.58030000     -36.27420000     -73.49660000
H      -48.16600000     -37.10230000     -72.05400000
C      -48.02720000     -31.30980000     -73.05460000
H      -48.14900000     -31.70310000     -74.12200000
H      -48.94100000     -30.74830000     -72.90950000
S      -45.68550000     -36.85630000     -72.12800000
S      -46.42800000     -30.32860000     -72.97190000
C      -44.82870000     -35.62750000     -73.25510000
H      -44.58180000     -36.03690000     -74.15730000
H      -45.58390000     -34.84960000     -73.41050000
C      -45.16800000     -31.60690000     -73.40880000
H      -45.20430000     -31.74090000     -74.54770000
H      -45.43980000     -32.61950000     -72.94120000
C      -43.72620000     -31.32030000     -72.87630000
H      -43.00080000     -31.82250000     -73.50520000
H      -43.48950000     -30.24730000     -72.89300000
C      -43.53010000     -35.00800000     -72.63710000
H      -43.37670000     -34.17860000     -73.22720000
H      -42.62440000     -35.62980000     -72.66550000
C      -43.65470000     -34.43510000     -71.21310000
C      -43.69920000     -35.29040000     -70.18930000
C      -43.51530000     -33.10930000     -70.82750000
H      -43.59940000     -36.38980000     -70.28210000
C      -43.35880000     -33.05170000     -69.44510000
C      -43.47400000     -31.77720000     -71.44310000
C      -43.46850000     -30.79590000     -70.47540000
S      -43.32590000     -34.60530000     -68.62920000
S      -43.19250000     -31.42100000     -68.83240000
H      -43.34620000     -29.71860000     -70.68820000
