40
Properties=species:S:1:pos:R:3 #=T CELL(abcABC):=T 1.889726e+02=T 90.00000=T Traj:=T positionsangstrom=T Step:=T 0=T Bead:=T pbc="F F F"
C      -48.16090000     -32.33620000     -70.78160000
C      -48.00100000     -32.50630000     -72.16950000
C      -47.75840000     -33.81330000     -72.63820000
C      -47.73930000     -34.91310000     -71.79860000
C      -47.81880000     -34.68830000     -70.46080000
C      -48.00100000     -33.41790000     -69.90040000
H      -48.30990000     -31.27270000     -70.40260000
H      -47.61300000     -33.89940000     -73.71820000
H      -47.64200000     -35.52170000     -69.79490000
H      -48.05220000     -33.24630000     -68.82050000
C      -47.57440000     -36.35030000     -72.26480000
H      -48.10770000     -36.45130000     -73.20960000
H      -47.98590000     -36.99680000     -71.52350000
C      -47.91030000     -31.34030000     -73.12710000
H      -47.78370000     -31.59770000     -74.15260000
H      -48.74450000     -30.68480000     -72.94390000
S      -45.77190000     -36.81730000     -72.09870000
S      -46.32700000     -30.42830000     -72.62100000
C      -44.96710000     -35.70480000     -73.29590000
H      -44.60070000     -36.37740000     -74.13770000
H      -45.76210000     -34.96790000     -73.63820000
C      -45.23630000     -31.78090000     -73.21630000
H      -45.45680000     -31.84580000     -74.21820000
H      -45.54960000     -32.69490000     -72.74160000
C      -43.75340000     -31.51170000     -72.93360000
H      -43.04130000     -32.22390000     -73.46430000
H      -43.54240000     -30.54360000     -73.25200000
C      -43.67880000     -34.80680000     -72.88840000
H      -43.65040000     -33.90300000     -73.51830000
H      -42.88440000     -35.52950000     -73.17130000
C      -43.54790000     -34.41600000     -71.40520000
C      -43.51240000     -35.32480000     -70.38970000
C      -43.43470000     -33.05500000     -70.88600000
H      -43.45520000     -36.44170000     -70.49590000
C      -43.36390000     -33.02540000     -69.47300000
C      -43.47890000     -31.67760000     -71.45380000
C      -43.39270000     -30.74230000     -70.43610000
S      -43.36380000     -34.55360000     -68.72660000
S      -43.27050000     -31.42890000     -68.80800000
H      -43.60290000     -29.71920000     -70.62640000
