40
Properties=species:S:1:pos:R:3 #=T CELL(abcABC):=T 1.889726e+02=T 90.00000=T Traj:=T positionsangstrom=T Step:=T 0=T Bead:=T pbc="F F F"
C      -47.99740000     -32.30480000     -70.65780000
C      -48.20290000     -32.48690000     -72.04240000
C      -48.04510000     -33.80300000     -72.50770000
C      -47.80250000     -34.90610000     -71.65910000
C      -47.78560000     -34.63060000     -70.28290000
C      -48.06520000     -33.40730000     -69.76930000
H      -47.87230000     -31.31590000     -70.24270000
H      -48.20210000     -33.96920000     -73.60480000
H      -47.55860000     -35.46640000     -69.62610000
H      -48.24000000     -33.21840000     -68.74490000
C      -47.58630000     -36.25530000     -72.26540000
H      -47.97450000     -36.34420000     -73.30950000
H      -47.94680000     -37.14570000     -71.69700000
C      -47.90740000     -31.28630000     -72.88990000
H      -47.95100000     -31.53280000     -73.94310000
H      -48.55410000     -30.33820000     -72.69500000
S      -45.72770000     -36.72690000     -72.18370000
S      -46.23720000     -30.56240000     -72.64500000
C      -45.06130000     -35.44730000     -73.33410000
H      -45.12230000     -35.75840000     -74.36150000
H      -45.70480000     -34.64870000     -73.27590000
C      -45.01260000     -31.63210000     -73.49690000
H      -44.96380000     -31.32190000     -74.64080000
H      -45.42480000     -32.70130000     -73.61280000
C      -43.63130000     -31.34450000     -72.93870000
H      -42.86380000     -31.85900000     -73.53820000
H      -43.46920000     -30.26310000     -73.15590000
C      -43.67440000     -35.00600000     -72.86060000
H      -43.20860000     -34.21530000     -73.57670000
H      -42.93470000     -35.76690000     -72.99300000
C      -43.57780000     -34.49740000     -71.39300000
C      -43.47170000     -35.39310000     -70.36730000
C      -43.59540000     -33.10660000     -70.93600000
H      -43.41690000     -36.47970000     -70.44120000
C      -43.52130000     -33.07090000     -69.55310000
C      -43.58040000     -31.72050000     -71.45290000
C      -43.31580000     -30.78420000     -70.48720000
S      -43.32200000     -34.66500000     -68.78630000
S      -43.29280000     -31.45340000     -68.86510000
H      -43.24940000     -29.77280000     -70.63330000
