40
Properties=species:S:1:pos:R:3 #=T CELL(abcABC):=T 1.889726e+02=T 90.00000=T Traj:=T positionsangstrom=T Step:=T 0=T Bead:=T pbc="F F F"
C      -41.93200000     -33.13630000     -71.38040000
C      -42.41450000     -31.82580000     -71.54840000
C      -42.99050000     -31.13430000     -70.48160000
C      -43.16490000     -31.70550000     -69.26580000
C      -42.58590000     -33.00630000     -69.01330000
C      -42.03590000     -33.68500000     -70.07920000
H      -41.49480000     -33.74490000     -72.20340000
H      -43.46080000     -30.16280000     -70.64450000
H      -42.53580000     -33.60470000     -68.06930000
H      -41.51420000     -34.59950000     -69.75380000
C      -43.92850000     -30.97830000     -68.16820000
H      -43.82190000     -29.88330000     -68.44810000
H      -43.64160000     -31.17760000     -67.09800000
C      -42.32620000     -31.05330000     -72.89070000
H      -41.69450000     -30.16750000     -72.85950000
H      -41.83910000     -31.80310000     -73.49490000
S      -45.74440000     -31.29360000     -68.46130000
S      -43.96560000     -30.55300000     -73.60210000
C      -46.13620000     -33.07770000     -68.87660000
H      -45.30400000     -33.43480000     -69.47140000
H      -46.29680000     -33.50510000     -67.91050000
C      -44.70810000     -32.19980000     -73.82720000
H      -43.87420000     -32.93790000     -73.88890000
H      -45.10780000     -32.20600000     -74.86380000
C      -45.73920000     -32.59460000     -72.72220000
H      -45.27430000     -32.37490000     -71.77650000
H      -46.65930000     -31.83940000     -72.61770000
C      -47.40420000     -33.12810000     -69.69090000
H      -47.33860000     -32.31920000     -70.47210000
H      -48.23860000     -32.89770000     -69.01980000
C      -47.58560000     -34.54510000     -70.48730000
C      -48.14750000     -35.67770000     -69.93300000
C      -47.07960000     -34.70050000     -71.84120000
H      -48.63700000     -35.76540000     -68.96700000
C      -47.51190000     -36.01630000     -72.30730000
C      -46.21440000     -33.98700000     -72.78980000
C      -45.97360000     -34.76870000     -73.94050000
S      -48.16350000     -37.07440000     -71.08880000
S      -46.63420000     -36.41490000     -73.81110000
H      -45.63560000     -34.37730000     -74.90230000
