40
Properties=species:S:1:pos:R:3 #=T CELL(abcABC):=T 1.889726e+02=T 90.00000=T Traj:=T positionsangstrom=T Step:=T 0=T Bead:=T pbc="F F F"
C      -47.66070000     -36.37910000     -71.53880000
C      -46.30900000     -36.62390000     -71.32870000
C      -45.81930000     -36.52450000     -70.04750000
C      -46.52470000     -35.84490000     -69.00290000
C      -47.92370000     -35.68770000     -69.22720000
C      -48.42260000     -35.89160000     -70.46900000
H      -48.07530000     -36.63160000     -72.56490000
H      -44.74350000     -36.82250000     -70.10170000
H      -48.56180000     -35.22850000     -68.44830000
H      -49.45340000     -35.73250000     -70.67180000
C      -46.02770000     -35.50240000     -67.58790000
H      -45.65070000     -36.35750000     -66.99560000
H      -46.96190000     -35.07290000     -67.14910000
C      -45.42730000     -37.20720000     -72.39980000
H      -45.27040000     -38.30140000     -72.09870000
H      -45.99220000     -37.22670000     -73.38300000
S      -44.69460000     -34.15630000     -67.75990000
S      -43.83100000     -36.18430000     -72.46100000
C      -45.55420000     -32.72700000     -68.64850000
H      -46.32500000     -33.15040000     -69.18490000
H      -45.85850000     -31.90890000     -68.03250000
C      -44.45920000     -34.52870000     -72.89560000
H      -45.14090000     -34.20520000     -72.14050000
H      -45.13570000     -34.66100000     -73.78980000
C      -43.38360000     -33.51270000     -72.92530000
H      -43.01000000     -33.42910000     -71.92740000
H      -42.63880000     -33.83040000     -73.68520000
C      -44.64170000     -32.47050000     -69.80710000
H      -44.54850000     -33.42160000     -70.39840000
H      -43.60730000     -32.36020000     -69.44380000
C      -45.02820000     -31.43150000     -70.86160000
C      -45.73910000     -30.29320000     -70.53750000
C      -44.59960000     -31.35890000     -72.32120000
H      -46.22950000     -30.12270000     -69.62470000
C      -45.10060000     -30.17370000     -72.86500000
C      -43.96370000     -32.17650000     -73.29730000
C      -43.87940000     -31.60420000     -74.57590000
S      -45.97130000     -29.12670000     -71.73660000
S      -44.72080000     -30.04550000     -74.63670000
H      -43.48740000     -32.04380000     -75.53670000
