40
Properties=species:S:1:pos:R:3 #=T CELL(abcABC):=T 1.889726e+02=T 90.00000=T Traj:=T positionsangstrom=T Step:=T 0=T Bead:=T pbc="F F F"
C      -41.80120000     -32.53020000     -71.70200000
C      -42.64620000     -31.41500000     -71.57190000
C      -43.28910000     -31.13840000     -70.34500000
C      -43.10500000     -32.07740000     -69.30820000
C      -42.15840000     -33.09410000     -69.40890000
C      -41.50090000     -33.29340000     -70.62600000
H      -41.41390000     -32.72600000     -72.67880000
H      -44.06410000     -30.36620000     -70.15040000
H      -42.14300000     -33.87500000     -68.66290000
H      -41.00010000     -34.27180000     -70.73410000
C      -43.78920000     -31.89400000     -67.93840000
H      -43.45000000     -31.00410000     -67.38500000
H      -43.58480000     -32.75840000     -67.33400000
C      -42.73280000     -30.45280000     -72.74430000
H      -42.34230000     -29.45090000     -72.55090000
H      -42.01160000     -30.81940000     -73.50880000
S      -45.60940000     -31.65350000     -68.13150000
S      -44.44810000     -30.35810000     -73.54400000
C      -46.14830000     -33.16910000     -69.11430000
H      -45.32320000     -33.33720000     -69.83270000
H      -46.30520000     -33.98440000     -68.43220000
C      -44.78120000     -32.16780000     -73.81230000
H      -43.85190000     -32.76350000     -73.65530000
H      -45.04830000     -32.41750000     -74.85610000
C      -45.76920000     -32.66920000     -72.73640000
H      -45.45230000     -32.27000000     -71.73640000
H      -46.76180000     -32.13600000     -72.88730000
C      -47.39680000     -33.05260000     -69.96920000
H      -47.42310000     -32.33860000     -70.80390000
H      -48.32870000     -32.85120000     -69.35320000
C      -47.54240000     -34.42510000     -70.55420000
C      -48.24760000     -35.46310000     -70.00930000
C      -46.88880000     -34.79220000     -71.75710000
H      -48.98300000     -35.46170000     -69.20080000
C      -47.17920000     -36.09600000     -72.14900000
C      -46.14000000     -34.12780000     -72.77830000
C      -45.89210000     -34.91120000     -73.88790000
S      -48.14560000     -36.94010000     -71.03780000
S      -46.61480000     -36.53390000     -73.74670000
H      -45.38100000     -34.57680000     -74.78810000
