40
Properties=species:S:1:pos:R:3 #=T CELL(abcABC):=T 1.889726e+02=T 90.00000=T Traj:=T positionsangstrom=T Step:=T 0=T Bead:=T pbc="F F F"
C      -41.66110000     -32.16820000     -71.89330000
C      -42.41380000     -31.01610000     -71.60760000
C      -43.01040000     -31.04580000     -70.35510000
C      -42.84790000     -32.11490000     -69.47390000
C      -42.10150000     -33.23230000     -69.73500000
C      -41.45300000     -33.22540000     -70.98300000
H      -41.05780000     -32.28500000     -72.76910000
H      -43.74780000     -30.24240000     -70.12420000
H      -41.98620000     -34.12260000     -69.12610000
H      -40.92490000     -34.11310000     -71.37860000
C      -43.64110000     -31.92050000     -68.18360000
H      -43.50660000     -30.89680000     -67.88840000
H      -43.23760000     -32.58390000     -67.37960000
C      -42.78200000     -29.94430000     -72.60670000
H      -42.60240000     -28.93200000     -72.27170000
H      -42.36540000     -29.94340000     -73.63420000
S      -45.46290000     -32.07730000     -68.30060000
S      -44.59370000     -30.10470000     -72.95270000
C      -45.94460000     -33.66690000     -68.90060000
H      -45.24660000     -34.18790000     -69.56260000
H      -46.06610000     -34.33230000     -68.04490000
C      -44.79030000     -31.91310000     -73.28630000
H      -43.80720000     -32.30110000     -73.18720000
H      -44.99430000     -31.99410000     -74.30130000
C      -45.80260000     -32.56490000     -72.37760000
H      -45.39890000     -32.54690000     -71.31320000
H      -46.68250000     -31.94390000     -72.31800000
C      -47.39100000     -33.62470000     -69.51770000
H      -47.41200000     -32.70460000     -70.08000000
H      -48.14030000     -33.52630000     -68.77640000
C      -47.65310000     -34.74120000     -70.47280000
C      -48.48330000     -35.80130000     -70.21320000
C      -47.00220000     -34.82050000     -71.79830000
H      -49.20090000     -35.77940000     -69.41420000
C      -47.24200000     -36.08480000     -72.27520000
C      -46.17430000     -34.01000000     -72.71170000
C      -45.88310000     -34.71550000     -73.85530000
S      -48.43310000     -37.05030000     -71.40330000
S      -46.64040000     -36.33320000     -73.94010000
H      -45.27180000     -34.33120000     -74.60150000
