40
Properties=species:S:1:pos:R:3 #=T CELL(abcABC):=T 1.889726e+02=T 90.00000=T Traj:=T positionsangstrom=T Step:=T 0=T Bead:=T pbc="F F F"
C      -47.63840000     -36.28230000     -71.59850000
C      -46.29200000     -36.55780000     -71.25560000
C      -45.87960000     -36.25250000     -69.93300000
C      -46.78300000     -35.82100000     -68.91560000
C      -48.12710000     -35.50890000     -69.34080000
C      -48.55040000     -35.79900000     -70.63780000
H      -47.73410000     -36.56340000     -72.62650000
H      -44.83360000     -36.52460000     -69.72990000
H      -48.86060000     -35.02840000     -68.71800000
H      -49.57720000     -35.55780000     -70.97450000
C      -46.11640000     -35.52340000     -67.57390000
H      -45.49770000     -36.36770000     -67.23650000
H      -46.76000000     -35.29400000     -66.77350000
C      -45.38890000     -37.08320000     -72.31030000
H      -45.08620000     -38.05190000     -72.02450000
H      -45.78700000     -37.10540000     -73.29890000
S      -44.87820000     -34.19340000     -67.64870000
S      -43.78700000     -36.23170000     -72.52260000
C      -45.36740000     -33.12810000     -69.10240000
H      -46.01370000     -33.79890000     -69.63470000
H      -46.01460000     -32.25630000     -68.74310000
C      -44.40270000     -34.48290000     -72.86490000
H      -45.02370000     -34.16050000     -72.05010000
H      -44.89930000     -34.47090000     -73.83320000
C      -43.22480000     -33.55410000     -72.99530000
H      -42.55990000     -33.63140000     -72.09670000
H      -42.64660000     -33.86070000     -73.91910000
C      -44.27040000     -32.42800000     -69.90230000
H      -43.68050000     -33.16580000     -70.54190000
H      -43.58360000     -32.00080000     -69.17020000
C      -44.75540000     -31.32730000     -70.80820000
C      -45.67570000     -30.39140000     -70.38060000
C      -44.54270000     -31.29660000     -72.32290000
H      -46.00250000     -30.18550000     -69.36060000
C      -45.13260000     -30.16110000     -72.87550000
C      -43.85990000     -32.16530000     -73.23780000
C      -43.93890000     -31.63800000     -74.56440000
S      -46.10820000     -29.20420000     -71.71240000
S      -44.71840000     -30.09620000     -74.57080000
H      -43.58240000     -32.12000000     -75.51400000
