40
Properties=species:S:1:pos:R:3 #=T CELL(abcABC):=T 1.889726e+02=T 90.00000=T Traj:=T positionsangstrom=T Step:=T 0=T Bead:=T pbc="F F F"
C      -48.25950000     -30.57130000     -71.69040000
C      -47.14620000     -30.79020000     -72.56250000
C      -47.16760000     -31.89260000     -73.33840000
C      -48.15620000     -32.89670000     -73.18110000
C      -49.21030000     -32.70810000     -72.28610000
C      -49.26470000     -31.55770000     -71.50810000
H      -48.31240000     -29.63910000     -71.10560000
H      -46.37460000     -32.03670000     -73.98560000
H      -49.97430000     -33.54840000     -72.04800000
H      -50.03610000     -31.25310000     -70.79290000
C      -48.08880000     -34.15820000     -74.04630000
H      -48.55320000     -33.92470000     -75.02360000
H      -48.58130000     -35.08320000     -73.59920000
C      -46.15180000     -29.69800000     -72.79800000
H      -46.27970000     -29.33810000     -73.89350000
H      -46.40740000     -28.71780000     -72.21030000
S      -46.39230000     -34.69660000     -74.49350000
S      -44.44220000     -30.20530000     -72.44920000
C      -45.88060000     -34.98820000     -72.74460000
H      -46.51410000     -34.38990000     -72.09590000
H      -46.08890000     -36.03880000     -72.49640000
C      -44.55470000     -31.55580000     -71.20760000
H      -45.20870000     -32.37540000     -71.55410000
H      -45.12170000     -31.16620000     -70.32140000
C      -43.16620000     -32.06700000     -70.93120000
H      -42.82710000     -32.63590000     -71.82450000
H      -42.42150000     -31.29130000     -70.71600000
C      -44.39710000     -34.89610000     -72.46170000
H      -44.05530000     -33.89210000     -72.78010000
H      -43.82160000     -35.62530000     -73.08440000
C      -44.16390000     -35.29280000     -71.00100000
C      -44.43630000     -36.59030000     -70.63850000
C      -43.73240000     -34.45620000     -69.90150000
H      -44.84410000     -37.39130000     -71.34210000
C      -43.54650000     -35.20450000     -68.77860000
C      -43.21800000     -33.11370000     -69.74910000
C      -42.82460000     -32.81330000     -68.46980000
S      -44.17450000     -36.82320000     -68.90420000
S      -42.89840000     -34.24150000     -67.45380000
H      -42.38470000     -31.86040000     -68.17450000
