40
Properties=species:S:1:pos:R:3 #=T CELL(abcABC):=T 1.889726e+02=T 90.00000=T Traj:=T positionsangstrom=T Step:=T 0=T Bead:=T pbc="F F F"
C      -48.49290000     -30.51220000     -71.96760000
C      -47.35770000     -30.75370000     -72.67020000
C      -47.26290000     -31.94420000     -73.33510000
C      -48.29940000     -32.94300000     -73.24240000
C      -49.39170000     -32.74990000     -72.41890000
C      -49.44520000     -31.53020000     -71.80360000
H      -48.59230000     -29.53190000     -71.47390000
H      -46.38770000     -32.12470000     -73.89780000
H      -50.16380000     -33.61170000     -72.32580000
H      -50.27120000     -31.35260000     -71.12650000
C      -48.11220000     -34.12640000     -74.09800000
H      -48.60530000     -34.04620000     -75.04270000
H      -48.65240000     -35.02030000     -73.65010000
C      -46.26480000     -29.62190000     -72.78190000
H      -46.16030000     -29.42920000     -73.84290000
H      -46.57240000     -28.82800000     -72.06280000
S      -46.32850000     -34.61610000     -74.41280000
S      -44.51300000     -30.14800000     -72.40180000
C      -45.82780000     -35.01310000     -72.76330000
H      -46.37160000     -34.44090000     -72.04890000
H      -46.12580000     -36.05900000     -72.63690000
C      -44.54770000     -31.32870000     -70.98870000
H      -45.15770000     -32.20280000     -71.20000000
H      -44.86980000     -30.84830000     -70.04570000
C      -43.11330000     -31.97650000     -70.77900000
H      -42.73940000     -32.31640000     -71.76620000
H      -42.47460000     -31.18740000     -70.32200000
C      -44.26370000     -34.92950000     -72.42980000
H      -44.03870000     -33.91500000     -72.70980000
H      -43.70650000     -35.52750000     -73.18910000
C      -44.05150000     -35.37260000     -71.02440000
C      -44.29880000     -36.61760000     -70.61580000
C      -43.62290000     -34.48320000     -69.95670000
H      -44.60210000     -37.53970000     -71.27280000
C      -43.50290000     -35.21930000     -68.75400000
C      -43.12480000     -33.12640000     -69.77610000
C      -42.74540000     -32.93280000     -68.43730000
S      -43.97660000     -36.89380000     -68.89910000
S      -42.95900000     -34.33880000     -67.39000000
H      -42.17140000     -32.09580000     -68.16660000
