40
Properties=species:S:1:pos:R:3 #=T CELL(abcABC):=T 1.889726e+02=T 90.00000=T Traj:=T positionsangstrom=T Step:=T 0=T Bead:=T pbc="F F F"
C      -48.67710000     -30.58500000     -71.95200000
C      -47.43260000     -30.62290000     -72.63720000
C      -47.22910000     -31.83920000     -73.42870000
C      -48.21390000     -32.82160000     -73.53190000
C      -49.42310000     -32.68860000     -72.81260000
C      -49.66010000     -31.53380000     -72.00960000
H      -48.88960000     -29.71510000     -71.35870000
H      -46.32470000     -31.98980000     -73.95700000
H      -50.06990000     -33.61990000     -72.78110000
H      -50.63500000     -31.27120000     -71.58560000
C      -47.96610000     -34.12890000     -74.23670000
H      -48.46250000     -34.09050000     -75.23230000
H      -48.44300000     -34.83910000     -73.62150000
C      -46.35700000     -29.53510000     -72.55900000
H      -46.30500000     -28.92320000     -73.42500000
H      -46.51590000     -28.81180000     -71.74840000
S      -46.26600000     -34.76170000     -74.42400000
S      -44.63940000     -30.20130000     -72.30300000
C      -45.83150000     -34.97670000     -72.54670000
H      -46.23330000     -34.09690000     -71.93300000
H      -46.44790000     -35.85750000     -72.29820000
C      -44.68320000     -31.36660000     -70.86620000
H      -45.50740000     -32.11490000     -70.97170000
H      -44.84790000     -30.90740000     -69.89650000
C      -43.31870000     -32.05180000     -70.85030000
H      -43.07510000     -32.52580000     -71.83680000
H      -42.59200000     -31.30560000     -70.55440000
C      -44.25250000     -34.99170000     -72.46050000
H      -43.84110000     -33.99800000     -72.69250000
H      -43.79790000     -35.77070000     -73.08720000
C      -43.95250000     -35.40400000     -70.95880000
C      -44.13290000     -36.66650000     -70.61220000
C      -43.45180000     -34.52970000     -69.88190000
H      -44.36900000     -37.51110000     -71.30450000
C      -43.30180000     -35.23360000     -68.73380000
C      -43.24110000     -33.12390000     -69.71230000
C      -42.90680000     -32.80150000     -68.42520000
S      -43.82400000     -36.94870000     -68.92270000
S      -42.89290000     -34.21870000     -67.32870000
H      -42.58000000     -31.81730000     -68.03860000
