40
Properties=species:S:1:pos:R:3 #=T CELL(abcABC):=T 1.889726e+02=T 90.00000=T Traj:=T positionsangstrom=T Step:=T 0=T Bead:=T pbc="F F F"
C      -48.91870000     -30.83600000     -72.18810000
C      -47.59950000     -30.81800000     -72.69510000
C      -47.21270000     -31.77900000     -73.61330000
C      -48.04750000     -32.86940000     -73.99980000
C      -49.34190000     -32.85220000     -73.48770000
C      -49.83910000     -31.85510000     -72.60180000
H      -49.21970000     -30.11150000     -71.42710000
H      -46.28950000     -31.80280000     -74.07060000
H      -49.98310000     -33.67510000     -73.64370000
H      -50.84200000     -31.93960000     -72.23640000
C      -47.59860000     -34.02310000     -74.79650000
H      -47.59320000     -33.69210000     -75.91760000
H      -48.35270000     -34.92750000     -74.60590000
C      -46.72570000     -29.76920000     -72.12080000
H      -46.87730000     -28.71250000     -72.48920000
H      -47.11430000     -29.49860000     -71.09290000
S      -45.92230000     -34.68110000     -74.30240000
S      -44.90730000     -30.16310000     -72.15500000
C      -45.80400000     -35.11310000     -72.53280000
H      -46.36270000     -34.26950000     -72.04760000
H      -46.31520000     -36.09940000     -72.40230000
C      -44.94130000     -31.60230000     -70.98780000
H      -45.64630000     -32.35120000     -71.34030000
H      -45.37530000     -31.33710000     -70.00990000
C      -43.50990000     -32.06640000     -70.79140000
H      -43.19510000     -32.51620000     -71.66140000
H      -42.92310000     -31.14790000     -70.52050000
C      -44.35420000     -35.20100000     -72.22780000
H      -43.94670000     -34.29300000     -72.61220000
H      -44.07000000     -36.01550000     -72.88740000
C      -43.96770000     -35.47590000     -70.80900000
C      -43.97610000     -36.76280000     -70.31310000
C      -43.50390000     -34.47610000     -69.81640000
H      -44.46970000     -37.61620000     -70.86780000
C      -43.30320000     -35.07160000     -68.52770000
C      -43.32220000     -33.04210000     -69.72270000
C      -42.97980000     -32.59720000     -68.40690000
S      -43.49480000     -36.81240000     -68.64220000
S      -42.87880000     -33.90690000     -67.29570000
H      -42.80150000     -31.58960000     -68.08130000
