40
Properties=species:S:1:pos:R:3 #=T CELL(abcABC):=T 1.889726e+02=T 90.00000=T Traj:=T positionsangstrom=T Step:=T 0=T Bead:=T pbc="F F F"
C      -49.07860000     -30.90030000     -72.24850000
C      -47.76110000     -30.87460000     -72.71500000
C      -47.28520000     -31.94670000     -73.44110000
C      -48.13660000     -32.93710000     -73.90880000
C      -49.45510000     -32.93950000     -73.48670000
C      -49.94380000     -31.95270000     -72.62580000
H      -49.39520000     -30.05260000     -71.68230000
H      -46.21740000     -31.92570000     -73.61790000
H      -50.07070000     -33.78870000     -73.89080000
H      -51.00720000     -32.02790000     -72.45480000
C      -47.51450000     -34.11290000     -74.72040000
H      -47.54630000     -33.91670000     -75.71810000
H      -48.07260000     -34.98970000     -74.59920000
C      -46.82740000     -29.72580000     -72.31100000
H      -46.86180000     -28.93840000     -73.06480000
H      -47.15290000     -29.36160000     -71.33790000
S      -45.74130000     -34.51260000     -74.46500000
S      -45.05690000     -30.13040000     -72.12790000
C      -45.57170000     -34.90660000     -72.66940000
H      -46.03920000     -34.01160000     -72.19640000
H      -46.16150000     -35.74820000     -72.37430000
C      -44.91500000     -31.43200000     -70.76980000
H      -45.70180000     -32.20530000     -70.92750000
H      -45.05740000     -31.07300000     -69.75770000
C      -43.49880000     -32.05890000     -70.73190000
H      -43.20060000     -32.40980000     -71.75620000
H      -42.77770000     -31.27150000     -70.57840000
C      -44.17500000     -35.17390000     -72.29410000
H      -43.55070000     -34.27270000     -72.55140000
H      -43.77500000     -36.09090000     -72.84700000
C      -43.94590000     -35.45540000     -70.77510000
C      -43.95960000     -36.74000000     -70.30240000
C      -43.60980000     -34.49850000     -69.72850000
H      -43.93950000     -37.66470000     -70.88290000
C      -43.39280000     -35.06280000     -68.48790000
C      -43.25940000     -33.09730000     -69.68740000
C      -42.69450000     -32.70280000     -68.47540000
S      -43.64080000     -36.84330000     -68.59690000
S      -42.80600000     -33.96800000     -67.28690000
H      -42.57770000     -31.65830000     -68.17910000
