40
Properties=species:S:1:pos:R:3 #=T CELL(abcABC):=T 1.889726e+02=T 90.00000=T Traj:=T positionsangstrom=T Step:=T 0=T Bead:=T pbc="F F F"
C      -49.11180000     -31.12880000     -72.30260000
C      -47.74030000     -31.07900000     -72.61270000
C      -47.13410000     -32.02120000     -73.43680000
C      -47.91050000     -33.12970000     -73.85360000
C      -49.29820000     -33.22070000     -73.62670000
C      -49.90900000     -32.17700000     -72.83420000
H      -49.46060000     -30.42310000     -71.49910000
H      -46.01430000     -31.96430000     -73.73700000
H      -49.97310000     -34.09740000     -73.86010000
H      -51.00790000     -32.07490000     -72.82860000
C      -47.32810000     -34.32050000     -74.59690000
H      -47.52300000     -34.15170000     -75.71310000
H      -47.74270000     -35.31010000     -74.32770000
C      -46.98370000     -29.88100000     -72.05550000
H      -47.24300000     -29.03950000     -72.78350000
H      -47.32900000     -29.72790000     -71.02480000
S      -45.50960000     -34.40760000     -74.53400000
S      -45.17160000     -29.93920000     -71.99480000
C      -45.38710000     -34.63030000     -72.73420000
H      -45.59900000     -33.72780000     -72.13370000
H      -46.15790000     -35.36510000     -72.40120000
C      -45.01610000     -31.20770000     -70.60820000
H      -45.83200000     -31.92370000     -70.82330000
H      -45.27020000     -30.61840000     -69.63270000
C      -43.60660000     -31.88810000     -70.59720000
H      -43.26960000     -32.20100000     -71.62390000
H      -42.91800000     -31.06330000     -70.43110000
C      -43.90050000     -35.07170000     -72.40590000
H      -43.08790000     -34.31740000     -72.56900000
H      -43.61620000     -35.95240000     -72.90330000
C      -43.81910000     -35.32010000     -70.93730000
C      -43.99470000     -36.61440000     -70.44530000
C      -43.50640000     -34.44570000     -69.79520000
H      -44.19720000     -37.45150000     -71.14220000
C      -43.37050000     -35.15670000     -68.57570000
C      -43.32580000     -33.01440000     -69.60190000
C      -42.98610000     -32.67200000     -68.32100000
S      -43.90360000     -36.83750000     -68.69500000
S      -42.92720000     -34.10840000     -67.29640000
H      -42.66390000     -31.64790000     -68.05740000
