40
Properties=species:S:1:pos:R:3 #=T CELL(abcABC):=T 1.889726e+02=T 90.00000=T Traj:=T positionsangstrom=T Step:=T 0=T Bead:=T pbc="F F F"
C      -42.43860000     -31.83140000     -71.39470000
C      -43.18800000     -30.74250000     -70.86740000
C      -43.70530000     -30.87960000     -69.53840000
C      -43.35670000     -31.95750000     -68.73680000
C      -42.49730000     -32.94050000     -69.29240000
C      -42.07060000     -32.90340000     -70.59240000
H      -42.11210000     -31.78500000     -72.48360000
H      -44.34760000     -30.06400000     -69.11170000
H      -42.14630000     -33.82470000     -68.67800000
H      -41.44360000     -33.65490000     -71.10760000
C      -44.08870000     -32.13940000     -67.41360000
H      -44.44450000     -31.13060000     -67.24940000
H      -43.46500000     -32.50070000     -66.66530000
C      -43.48160000     -29.52710000     -71.54030000
H      -43.60370000     -28.55790000     -70.91360000
H      -42.84090000     -29.30150000     -72.38160000
S      -45.63630000     -33.25310000     -67.60190000
S      -45.24920000     -29.67450000     -72.25870000
C      -45.41770000     -34.24170000     -69.16190000
H      -44.67940000     -33.74360000     -69.82840000
H      -44.98030000     -35.17070000     -68.86060000
C      -45.33340000     -31.25760000     -73.12210000
H      -44.26560000     -31.45770000     -73.43430000
H      -45.87790000     -31.09560000     -74.13420000
C      -46.01460000     -32.36510000     -72.34070000
H      -45.29990000     -32.53120000     -71.50450000
H      -46.99460000     -31.95480000     -72.03370000
C      -46.71510000     -34.41680000     -69.83790000
H      -46.89000000     -33.36760000     -70.12680000
H      -47.57890000     -34.68680000     -69.10150000
C      -46.69260000     -35.34630000     -71.00040000
C      -47.07830000     -36.65860000     -70.86480000
C      -46.60990000     -34.90860000     -72.37500000
H      -47.20360000     -37.27000000     -70.02290000
C      -46.72820000     -35.98310000     -73.26150000
C      -46.24790000     -33.69330000     -73.12310000
C      -46.29390000     -33.90350000     -74.45650000
S      -47.10270000     -37.45100000     -72.40960000
S      -46.43410000     -35.57360000     -74.92750000
H      -45.96050000     -33.26400000     -75.22560000
