40
Properties=species:S:1:pos:R:3 #=T CELL(abcABC):=T 1.889726e+02=T 90.00000=T Traj:=T positionsangstrom=T Step:=T 0=T Bead:=T pbc="F F F"
C      -48.99160000     -31.18650000     -72.43840000
C      -47.71250000     -30.94900000     -72.90340000
C      -47.12770000     -31.87510000     -73.74130000
C      -47.68620000     -33.07660000     -74.12930000
C      -48.94700000     -33.33140000     -73.59610000
C      -49.63590000     -32.35070000     -72.83810000
H      -49.57210000     -30.40720000     -71.93950000
H      -46.03360000     -31.72840000     -74.04390000
H      -49.37240000     -34.34200000     -73.87840000
H      -50.57640000     -32.58020000     -72.32770000
C      -46.85710000     -34.09210000     -74.98830000
H      -46.74430000     -33.75890000     -76.04590000
H      -47.37680000     -35.02910000     -74.90790000
C      -46.99620000     -29.72600000     -72.40530000
H      -46.84840000     -28.98000000     -73.32150000
H      -47.59130000     -29.30360000     -71.61930000
S      -45.04940000     -34.21620000     -74.49800000
S      -45.21820000     -30.00210000     -71.95860000
C      -45.22780000     -34.73260000     -72.72970000
H      -45.71540000     -34.00440000     -72.04850000
H      -45.84330000     -35.65380000     -72.73580000
C      -45.24610000     -31.50290000     -70.92520000
H      -45.81400000     -32.37750000     -71.26190000
H      -45.86580000     -31.24830000     -70.01630000
C      -43.82220000     -31.90500000     -70.51070000
H      -43.25710000     -32.03280000     -71.44310000
H      -43.32150000     -31.04070000     -70.02840000
C      -43.71550000     -35.06230000     -72.23500000
H      -43.15390000     -34.09650000     -72.37630000
H      -43.37130000     -35.83490000     -72.92100000
C      -43.65520000     -35.44910000     -70.76730000
C      -43.69970000     -36.76010000     -70.32870000
C      -43.84670000     -34.49510000     -69.66580000
H      -43.73220000     -37.58150000     -71.08560000
C      -43.83910000     -35.14090000     -68.44760000
C      -43.76120000     -33.04320000     -69.52090000
C      -43.54410000     -32.68910000     -68.19990000
S      -43.65960000     -36.84810000     -68.54330000
S      -43.63540000     -34.05900000     -67.06000000
H      -43.30850000     -31.73700000     -67.85630000
