40
Properties=species:S:1:pos:R:3 #=T CELL(abcABC):=T 1.889726e+02=T 90.00000=T Traj:=T positionsangstrom=T Step:=T 0=T Bead:=T pbc="F F F"
C      -46.24780000     -31.50310000     -69.82410000
C      -47.29510000     -31.93670000     -70.66790000
C      -47.72760000     -33.23600000     -70.62330000
C      -47.19260000     -34.17720000     -69.76530000
C      -46.18430000     -33.81390000     -68.88340000
C      -45.73910000     -32.44720000     -68.95000000
H      -45.92910000     -30.48760000     -69.86560000
H      -48.59450000     -33.61620000     -71.22700000
H      -45.61340000     -34.44600000     -68.19610000
H      -44.93480000     -32.23920000     -68.29890000
C      -47.55730000     -35.60460000     -69.92650000
H      -48.55050000     -35.64770000     -70.51010000
H      -47.68330000     -36.12320000     -68.99790000
C      -47.93300000     -30.98120000     -71.64890000
H      -48.90260000     -31.33880000     -71.94480000
H      -47.91840000     -29.94550000     -71.23500000
S      -46.30710000     -36.65500000     -70.83030000
S      -46.83220000     -30.63070000     -73.16480000
C      -46.10860000     -36.03180000     -72.51050000
H      -46.63720000     -36.72430000     -73.16000000
H      -46.57350000     -35.02990000     -72.60120000
C      -46.67080000     -32.30530000     -73.92420000
H      -46.96920000     -32.31030000     -74.93150000
H      -47.38850000     -33.02720000     -73.46920000
C      -45.20380000     -32.67250000     -74.02980000
H      -45.15260000     -33.70240000     -74.33240000
H      -44.81050000     -32.10240000     -74.83130000
C      -44.59700000     -35.93630000     -72.91820000
H      -44.33000000     -35.52490000     -73.88810000
H      -44.12080000     -36.90140000     -72.71860000
C      -43.98150000     -35.01590000     -71.91230000
C      -43.39090000     -35.57230000     -70.75530000
C      -43.87630000     -33.59630000     -71.88380000
H      -43.12020000     -36.59670000     -70.52920000
C      -43.10860000     -33.10510000     -70.79090000
C      -44.32500000     -32.54900000     -72.78800000
C      -43.83280000     -31.32680000     -72.39310000
S      -42.61490000     -34.37610000     -69.68870000
S      -42.94010000     -31.34750000     -70.88920000
H      -44.06280000     -30.34740000     -72.76100000
