40
Properties=species:S:1:pos:R:3 #=T CELL(abcABC):=T 1.889726e+02=T 90.00000=T Traj:=T positionsangstrom=T Step:=T 0=T Bead:=T pbc="F F F"
C      -47.84610000     -36.34960000     -71.67840000
C      -46.47080000     -36.66760000     -71.37170000
C      -45.97350000     -36.44600000     -70.06940000
C      -46.75310000     -35.77220000     -69.11720000
C      -48.09800000     -35.45350000     -69.40590000
C      -48.66750000     -35.73940000     -70.70200000
H      -48.31090000     -36.66020000     -72.62860000
H      -44.99390000     -36.76160000     -69.78460000
H      -48.66280000     -34.98170000     -68.54700000
H      -49.67180000     -35.61720000     -70.93820000
C      -46.25410000     -35.44880000     -67.68800000
H      -45.95250000     -36.40360000     -67.19490000
H      -47.11290000     -35.09670000     -67.14480000
C      -45.42060000     -37.17830000     -72.49300000
H      -45.27060000     -38.24620000     -72.24550000
H      -45.97720000     -36.92340000     -73.41570000
S      -44.92110000     -34.13290000     -67.69200000
S      -43.78520000     -36.29260000     -72.52640000
C      -45.40340000     -33.09540000     -69.13120000
H      -45.80910000     -33.69070000     -69.94440000
H      -46.19530000     -32.36870000     -68.75630000
C      -44.33350000     -34.48530000     -72.73540000
H      -44.96970000     -34.16640000     -71.93570000
H      -44.97030000     -34.31630000     -73.68090000
C      -43.11620000     -33.51030000     -72.78800000
H      -42.58920000     -33.39470000     -71.87180000
H      -42.45880000     -33.88190000     -73.60060000
C      -44.17940000     -32.33410000     -69.79870000
H      -43.46470000     -32.96330000     -70.39920000
H      -43.42670000     -31.96390000     -69.13810000
C      -44.73420000     -31.26420000     -70.75510000
C      -45.51950000     -30.22910000     -70.36940000
C      -44.53810000     -31.27930000     -72.16010000
H      -45.73730000     -29.95400000     -69.34690000
C      -44.95680000     -30.16030000     -72.83670000
C      -43.80490000     -32.18840000     -73.11120000
C      -43.87840000     -31.69230000     -74.42390000
S      -46.02680000     -29.20040000     -71.71100000
S      -44.73480000     -30.16110000     -74.53160000
H      -43.30840000     -32.06440000     -75.28790000
