40
Properties=species:S:1:pos:R:3 #=T CELL(abcABC):=T 1.889726e+02=T 90.00000=T Traj:=T positionsangstrom=T Step:=T 0=T Bead:=T pbc="F F F"
C      -46.09530000     -31.77900000     -69.86920000
C      -47.35860000     -32.09680000     -70.54860000
C      -47.92690000     -33.34850000     -70.37800000
C      -47.23210000     -34.32980000     -69.59700000
C      -46.08230000     -34.01540000     -68.91080000
C      -45.47520000     -32.72650000     -69.09010000
H      -45.59670000     -30.84880000     -70.11650000
H      -48.83630000     -33.54910000     -70.93300000
H      -45.57040000     -34.89150000     -68.43240000
H      -44.49720000     -32.53300000     -68.70780000
C      -47.70960000     -35.68760000     -69.71560000
H      -48.81920000     -35.62990000     -69.89440000
H      -47.65640000     -36.22840000     -68.70890000
C      -48.09530000     -31.07930000     -71.42270000
H      -49.03810000     -31.41360000     -71.82000000
H      -48.15580000     -30.13130000     -70.85330000
S      -46.83790000     -36.74850000     -70.94520000
S      -47.07720000     -30.61290000     -72.87840000
C      -46.38070000     -35.76130000     -72.45900000
H      -46.93400000     -36.16050000     -73.27560000
H      -46.74410000     -34.70960000     -72.35790000
C      -46.80660000     -32.22490000     -73.56650000
H      -47.40250000     -32.28350000     -74.56820000
H      -47.20280000     -33.00490000     -72.88380000
C      -45.28890000     -32.61310000     -73.90100000
H      -45.33650000     -33.65160000     -74.30090000
H      -44.87510000     -32.01750000     -74.74960000
C      -44.83160000     -35.70650000     -72.71710000
H      -44.68840000     -35.45210000     -73.82380000
H      -44.47290000     -36.74880000     -72.64880000
C      -43.99150000     -34.88400000     -71.80240000
C      -43.17790000     -35.51510000     -70.85670000
C      -43.86180000     -33.45610000     -71.82430000
H      -43.26530000     -36.56850000     -70.68710000
C      -42.84850000     -33.00200000     -70.99190000
C      -44.43110000     -32.36860000     -72.67380000
C      -43.77930000     -31.19220000     -72.42240000
S      -42.06430000     -34.34200000     -70.15120000
S      -42.51030000     -31.31550000     -71.19400000
H      -43.93260000     -30.27710000     -73.04100000
