40
Properties=species:S:1:pos:R:3 #=T CELL(abcABC):=T 1.889726e+02=T 90.00000=T Traj:=T positionsangstrom=T Step:=T 0=T Bead:=T pbc="F F F"
C      -46.08020000     -31.86810000     -69.65880000
C      -47.22670000     -32.07540000     -70.41490000
C      -47.83310000     -33.36400000     -70.40100000
C      -47.24600000     -34.40160000     -69.59950000
C      -46.02440000     -34.18860000     -68.94880000
C      -45.40880000     -32.94420000     -68.99760000
H      -45.73190000     -30.89260000     -69.55970000
H      -48.84030000     -33.55490000     -70.90150000
H      -45.73750000     -35.05050000     -68.29810000
H      -44.58370000     -32.63300000     -68.37390000
C      -47.78730000     -35.76830000     -69.64450000
H      -48.86510000     -35.91220000     -69.86700000
H      -47.56470000     -36.30140000     -68.76160000
C      -47.90350000     -30.99650000     -71.20410000
H      -48.94370000     -31.22730000     -71.44060000
H      -48.06280000     -30.03180000     -70.61500000
S      -46.83240000     -36.83060000     -70.79250000
S      -47.05220000     -30.43390000     -72.77510000
C      -46.28840000     -35.73230000     -72.07460000
H      -46.99550000     -36.00470000     -72.88040000
H      -46.58300000     -34.67980000     -71.80820000
C      -46.88500000     -32.03470000     -73.69870000
H      -47.44860000     -32.01470000     -74.61000000
H      -47.38190000     -32.79020000     -73.09350000
C      -45.42610000     -32.40190000     -74.01040000
H      -45.48330000     -33.37410000     -74.50910000
H      -45.05830000     -31.73630000     -74.75210000
C      -44.93640000     -35.77680000     -72.77370000
H      -45.05490000     -35.45160000     -73.82430000
H      -44.53030000     -36.74630000     -72.97450000
C      -43.90290000     -34.90190000     -72.06010000
C      -43.14930000     -35.45410000     -71.02370000
C      -43.75550000     -33.48070000     -72.13650000
H      -43.04190000     -36.51350000     -70.89210000
C      -42.76700000     -33.07640000     -71.29950000
C      -44.39750000     -32.39340000     -72.83850000
C      -43.79040000     -31.22190000     -72.52560000
S      -42.16470000     -34.37420000     -70.20210000
S      -42.61950000     -31.29850000     -71.24140000
H      -44.14290000     -30.27990000     -72.94590000
