40
Properties=species:S:1:pos:R:3 #=T CELL(abcABC):=T 1.889726e+02=T 90.00000=T Traj:=T positionsangstrom=T Step:=T 0=T Bead:=T pbc="F F F"
C      -46.01390000     -31.76350000     -69.32230000
C      -47.24810000     -31.91700000     -70.08420000
C      -47.72830000     -33.25950000     -70.27190000
C      -47.15210000     -34.33210000     -69.54660000
C      -45.93380000     -34.10740000     -68.91630000
C      -45.42920000     -32.85160000     -68.68820000
H      -45.69170000     -30.69440000     -69.10100000
H      -48.66800000     -33.44900000     -70.68080000
H      -45.54690000     -34.81920000     -68.24580000
H      -44.54670000     -32.80760000     -68.02070000
C      -47.62130000     -35.78560000     -69.68230000
H      -48.53980000     -35.75130000     -70.30050000
H      -47.84570000     -36.14300000     -68.63240000
C      -47.80510000     -30.70460000     -70.79280000
H      -48.92080000     -30.83960000     -70.95590000
H      -47.50820000     -29.83980000     -70.19050000
S      -46.42200000     -36.72360000     -70.61170000
S      -46.88770000     -30.47950000     -72.45770000
C      -46.63710000     -35.84380000     -72.37040000
H      -47.35670000     -36.39500000     -73.02860000
H      -47.16930000     -34.90540000     -72.26010000
C      -46.98450000     -32.17120000     -73.22180000
H      -47.81510000     -32.15400000     -73.95590000
H      -47.17060000     -32.86210000     -72.43690000
C      -45.68870000     -32.47320000     -73.91000000
H      -45.65040000     -33.38960000     -74.47410000
H      -45.61650000     -31.69240000     -74.63470000
C      -45.26280000     -35.65070000     -72.98780000
H      -45.35980000     -35.11210000     -73.90830000
H      -44.70710000     -36.58020000     -73.23060000
C      -44.24710000     -34.91680000     -72.13480000
C      -43.31030000     -35.60030000     -71.34300000
C      -44.03920000     -33.51720000     -72.30040000
H      -43.31040000     -36.65520000     -70.95980000
C      -42.94150000     -33.13880000     -71.47090000
C      -44.48970000     -32.40620000     -73.03720000
C      -43.84720000     -31.21930000     -72.75270000
S      -42.24800000     -34.45310000     -70.54760000
S      -42.48310000     -31.46480000     -71.62880000
H      -43.88090000     -30.28510000     -73.30220000
