40
Properties=species:S:1:pos:R:3 #=T CELL(abcABC):=T 1.889726e+02=T 90.00000=T Traj:=T positionsangstrom=T Step:=T 0=T Bead:=T pbc="F F F"
C      -45.75950000     -31.66910000     -69.51640000
C      -47.01660000     -31.88780000     -70.07280000
C      -47.51870000     -33.19030000     -69.97240000
C      -46.88640000     -34.30070000     -69.37000000
C      -45.58520000     -34.02320000     -68.81440000
C      -45.08590000     -32.70730000     -68.87130000
H      -45.38790000     -30.64850000     -69.46180000
H      -48.55800000     -33.36220000     -70.49410000
H      -45.01310000     -34.80890000     -68.19980000
H      -44.10140000     -32.47550000     -68.48660000
C      -47.42860000     -35.70210000     -69.46400000
H      -48.54050000     -35.71070000     -69.40870000
H      -47.17230000     -36.24420000     -68.55540000
C      -47.81480000     -30.76470000     -70.72520000
H      -48.95080000     -30.80590000     -70.62810000
H      -47.64860000     -29.77890000     -70.17900000
S      -46.75550000     -36.73600000     -70.74960000
S      -47.13650000     -30.42730000     -72.45110000
C      -46.86190000     -35.57930000     -72.13970000
H      -47.67810000     -35.98370000     -72.74560000
H      -47.07290000     -34.56030000     -71.78330000
C      -47.01600000     -32.07320000     -73.28300000
H      -47.71070000     -32.26330000     -74.03860000
H      -47.15380000     -32.81760000     -72.46290000
C      -45.56400000     -32.25190000     -73.89200000
H      -45.62700000     -33.13470000     -74.46350000
H      -45.38420000     -31.44120000     -74.57150000
C      -45.54640000     -35.52620000     -73.00110000
H      -45.89980000     -34.92090000     -73.91330000
H      -45.27060000     -36.43950000     -73.49290000
C      -44.42350000     -34.90410000     -72.30180000
C      -43.61160000     -35.69520000     -71.50150000
C      -44.01340000     -33.53470000     -72.32030000
H      -43.64630000     -36.70400000     -71.30290000
C      -42.94230000     -33.33720000     -71.46560000
C      -44.45280000     -32.30880000     -72.91570000
C      -43.58560000     -31.22470000     -72.71980000
S      -42.32180000     -34.73910000     -70.71720000
S      -42.32600000     -31.65230000     -71.54720000
H      -43.70640000     -30.13220000     -72.95490000
