40
Properties=species:S:1:pos:R:3 #=T CELL(abcABC):=T 1.889726e+02=T 90.00000=T Traj:=T positionsangstrom=T Step:=T 0=T Bead:=T pbc="F F F"
C      -45.80690000     -31.42240000     -69.46530000
C      -46.92230000     -31.78720000     -70.17850000
C      -47.42090000     -33.08350000     -70.16190000
C      -46.73660000     -34.11160000     -69.57830000
C      -45.43560000     -33.83870000     -69.05830000
C      -45.04080000     -32.46390000     -68.92830000
H      -45.46490000     -30.39620000     -69.42300000
H      -48.46020000     -33.25340000     -70.63140000
H      -44.84690000     -34.64750000     -68.65450000
H      -44.04320000     -32.32080000     -68.46740000
C      -47.31110000     -35.47500000     -69.47950000
H      -48.37640000     -35.54380000     -69.37710000
H      -46.90450000     -36.01330000     -68.58690000
C      -47.71340000     -30.72140000     -70.89860000
H      -48.75120000     -31.05640000     -71.10670000
H      -47.82530000     -29.70290000     -70.35730000
S      -46.81040000     -36.67460000     -70.78040000
S      -46.91870000     -30.28320000     -72.50620000
C      -46.93150000     -35.71790000     -72.44660000
H      -47.55230000     -36.41170000     -73.04840000
H      -47.40620000     -34.72140000     -72.37490000
C      -46.89780000     -31.93930000     -73.38620000
H      -47.59660000     -31.75060000     -74.21010000
H      -47.28380000     -32.65540000     -72.71140000
C      -45.51680000     -32.27070000     -73.92990000
H      -45.59410000     -33.28610000     -74.35910000
H      -45.17960000     -31.59240000     -74.76420000
C      -45.58370000     -35.58450000     -73.15010000
H      -45.83730000     -34.94680000     -73.97070000
H      -45.18720000     -36.46990000     -73.73350000
C      -44.49140000     -35.01090000     -72.30110000
C      -43.85260000     -35.85660000     -71.39290000
C      -43.97760000     -33.65640000     -72.32780000
H      -43.79160000     -36.90780000     -71.47440000
C      -42.98030000     -33.47000000     -71.35050000
C      -44.39430000     -32.36860000     -72.89230000
C      -43.59630000     -31.37970000     -72.45200000
S      -42.60870000     -34.94360000     -70.44900000
S      -42.41170000     -31.85630000     -71.25870000
H      -43.75120000     -30.32130000     -72.58190000
