40
Properties=species:S:1:pos:R:3 #=T CELL(abcABC):=T 1.889726e+02=T 90.00000=T Traj:=T positionsangstrom=T Step:=T 0=T Bead:=T pbc="F F F"
C      -41.94980000     -35.48660000     -71.88120000
C      -43.17900000     -35.69690000     -72.42820000
C      -43.71450000     -34.73970000     -73.35510000
C      -43.00580000     -33.59330000     -73.67840000
C      -41.70670000     -33.40990000     -73.08610000
C      -41.22950000     -34.29690000     -72.12050000
H      -41.61960000     -36.15030000     -71.09520000
H      -44.60970000     -34.98980000     -73.82890000
H      -41.11350000     -32.53580000     -73.42860000
H      -40.22530000     -34.23030000     -71.72760000
C      -43.42590000     -32.65680000     -74.75560000
H      -44.21070000     -33.05850000     -75.36290000
H      -42.63510000     -32.45740000     -75.46850000
C      -44.00230000     -36.93040000     -72.18600000
H      -44.93710000     -36.94300000     -72.83920000
H      -43.38590000     -37.77280000     -72.53620000
S      -43.68700000     -31.00780000     -74.08390000
S      -44.46660000     -37.11400000     -70.32300000
C      -44.57590000     -31.16440000     -72.47760000
H      -43.82650000     -31.50690000     -71.79010000
H      -44.86650000     -30.20710000     -72.20360000
C      -45.74700000     -35.87240000     -70.06980000
H      -46.36180000     -36.05890000     -69.12800000
H      -46.49350000     -35.99970000     -70.86870000
C      -45.17080000     -34.49620000     -70.01560000
H      -44.19370000     -34.41190000     -69.45050000
H      -44.86210000     -34.08960000     -70.93920000
C      -45.74950000     -32.11900000     -72.45880000
H      -45.49340000     -33.19800000     -72.36800000
H      -46.15630000     -32.10840000     -73.47860000
C      -46.82790000     -31.82350000     -71.45070000
C      -47.77390000     -30.87790000     -71.61990000
C      -46.95430000     -32.56020000     -70.21550000
H      -47.93760000     -30.23190000     -72.42120000
C      -48.01460000     -32.05010000     -69.50180000
C      -46.28180000     -33.60660000     -69.54370000
C      -46.79360000     -33.78660000     -68.32580000
S      -48.95590000     -30.73560000     -70.31480000
S      -48.15370000     -32.75920000     -67.89410000
H      -46.56850000     -34.47910000     -67.54170000
