40
Properties=species:S:1:pos:R:3 #=T CELL(abcABC):=T 1.889726e+02=T 90.00000=T Traj:=T positionsangstrom=T Step:=T 0=T Bead:=T pbc="F F F"
C      -46.03570000     -31.55280000     -69.53390000
C      -47.15030000     -31.60320000     -70.39090000
C      -47.81780000     -32.79830000     -70.58470000
C      -47.41010000     -33.95570000     -69.81760000
C      -46.28280000     -33.89340000     -68.94460000
C      -45.51840000     -32.70430000     -68.88410000
H      -45.50360000     -30.62340000     -69.61470000
H      -48.74460000     -32.77040000     -71.14900000
H      -45.93640000     -34.76680000     -68.46380000
H      -44.53120000     -32.58120000     -68.41660000
C      -48.14870000     -35.22940000     -69.90210000
H      -49.22320000     -35.01540000     -70.14020000
H      -48.22040000     -35.70430000     -68.91530000
C      -47.40740000     -30.35320000     -71.23880000
H      -48.46890000     -30.27190000     -71.42350000
H      -47.16930000     -29.47250000     -70.71830000
S      -47.29640000     -36.48370000     -70.90370000
S      -46.41810000     -30.24680000     -72.78420000
C      -46.92900000     -35.49870000     -72.50290000
H      -47.62260000     -35.96800000     -73.24040000
H      -47.19410000     -34.42760000     -72.37130000
C      -46.33040000     -31.99690000     -73.44300000
H      -47.02780000     -32.08560000     -74.23060000
H      -46.67470000     -32.63710000     -72.64960000
C      -44.92950000     -32.36640000     -73.94350000
H      -44.91530000     -33.26090000     -74.57290000
H      -44.53150000     -31.53950000     -74.52590000
C      -45.46110000     -35.52520000     -73.00720000
H      -45.59070000     -34.98520000     -73.91390000
H      -45.24360000     -36.56690000     -73.18770000
C      -44.52380000     -35.01270000     -71.93870000
C      -43.97780000     -35.77400000     -70.94050000
C      -43.88860000     -33.73640000     -71.93000000
H      -44.30530000     -36.83640000     -70.90160000
C      -42.90800000     -33.61070000     -70.99840000
C      -43.90850000     -32.65680000     -72.89530000
C      -42.84660000     -31.73870000     -72.60250000
S      -42.71700000     -35.00290000     -70.01970000
S      -42.00350000     -32.13550000     -71.19090000
H      -42.65040000     -30.75360000     -73.00910000
