40
Properties=species:S:1:pos:R:3 #=T CELL(abcABC):=T 1.889726e+02=T 90.00000=T Traj:=T positionsangstrom=T Step:=T 0=T Bead:=T pbc="F F F"
C      -44.99330000     -34.45290000     -67.78180000
C      -44.18780000     -35.19030000     -68.65060000
C      -43.11200000     -34.59730000     -69.26360000
C      -42.79210000     -33.25510000     -68.98710000
C      -43.54530000     -32.54210000     -68.03870000
C      -44.72220000     -33.12490000     -67.45650000
H      -45.90050000     -34.97040000     -67.41450000
H      -42.68370000     -35.06190000     -70.17370000
H      -43.27360000     -31.57810000     -67.77070000
H      -45.48360000     -32.54650000     -67.01260000
C      -41.64580000     -32.49080000     -69.66120000
H      -40.71140000     -33.12310000     -69.81430000
H      -41.45350000     -31.57010000     -68.98250000
C      -44.52880000     -36.64270000     -68.92670000
H      -43.63700000     -37.26880000     -68.51680000
H      -45.47280000     -37.06090000     -68.55830000
S      -41.98700000     -31.79430000     -71.37710000
S      -44.45450000     -36.98730000     -70.74470000
C      -43.76230000     -31.51080000     -71.68790000
H      -44.31540000     -31.74130000     -70.77990000
H      -43.98890000     -30.41480000     -71.99510000
C      -46.05620000     -36.08360000     -71.22340000
H      -46.73200000     -36.37930000     -70.45110000
H      -46.37900000     -36.59900000     -72.14290000
C      -45.79510000     -34.59520000     -71.36880000
H      -45.81200000     -34.18660000     -70.29150000
H      -44.90090000     -34.41970000     -71.91310000
C      -44.09140000     -32.18480000     -72.97760000
H      -43.90420000     -33.22940000     -72.92030000
H      -43.46660000     -31.79740000     -73.68580000
C      -45.55180000     -31.97560000     -73.35300000
C      -45.92570000     -30.85790000     -74.16480000
C      -46.71830000     -32.72280000     -72.92160000
H      -45.23830000     -30.09520000     -74.56330000
C      -47.95370000     -32.21990000     -73.40820000
C      -46.97000000     -33.91100000     -72.02460000
C      -48.32850000     -34.14740000     -71.86320000
S      -47.68870000     -30.71480000     -74.27030000
S      -49.33840000     -33.22360000     -72.88290000
H      -48.68740000     -35.00400000     -71.28170000
