40
Properties=species:S:1:pos:R:3 #=T CELL(abcABC):=T 1.889726e+02=T 90.00000=T Traj:=T positionsangstrom=T Step:=T 0=T Bead:=T pbc="F F F"
C      -45.81230000     -31.58710000     -69.57800000
C      -46.86470000     -31.70190000     -70.50810000
C      -47.68430000     -32.80370000     -70.54090000
C      -47.39480000     -33.90830000     -69.71340000
C      -46.42830000     -33.80240000     -68.68530000
C      -45.66770000     -32.62770000     -68.61130000
H      -45.26950000     -30.67390000     -69.55850000
H      -48.43570000     -32.90760000     -71.28890000
H      -46.33030000     -34.60470000     -68.02980000
H      -44.89720000     -32.60960000     -67.87390000
C      -48.16230000     -35.16720000     -69.88540000
H      -49.10820000     -34.92310000     -70.33930000
H      -48.29220000     -35.71320000     -68.95360000
C      -47.29470000     -30.51230000     -71.41740000
H      -48.23760000     -30.77980000     -71.92500000
H      -47.43670000     -29.50180000     -70.90200000
S      -47.42060000     -36.50350000     -70.93410000
S      -46.13610000     -30.28650000     -72.88770000
C      -47.02000000     -35.67620000     -72.55300000
H      -47.61680000     -36.23770000     -73.31940000
H      -47.46790000     -34.74240000     -72.61540000
C      -46.13730000     -31.95590000     -73.58760000
H      -46.93170000     -31.99110000     -74.40880000
H      -46.49000000     -32.67680000     -72.79690000
C      -44.71580000     -32.31540000     -74.06500000
H      -44.72090000     -33.15170000     -74.73390000
H      -44.40690000     -31.49730000     -74.70540000
C      -45.62290000     -35.61950000     -72.98460000
H      -45.51750000     -35.07090000     -73.94780000
H      -45.11390000     -36.62180000     -73.26740000
C      -44.64750000     -34.96080000     -71.94550000
C      -44.22500000     -35.69040000     -70.88860000
C      -43.84800000     -33.71950000     -72.09340000
H      -44.45880000     -36.75130000     -70.71720000
C      -42.91840000     -33.65490000     -71.09590000
C      -43.81780000     -32.56080000     -72.91390000
C      -42.95880000     -31.56180000     -72.48920000
S      -42.94480000     -34.94930000     -69.92030000
S      -42.03270000     -32.16820000     -71.10430000
H      -42.68720000     -30.74770000     -73.02980000
