40
Properties=species:S:1:pos:R:3 #=T CELL(abcABC):=T 1.889726e+02=T 90.00000=T Traj:=T positionsangstrom=T Step:=T 0=T Bead:=T pbc="F F F"
C      -45.86140000     -31.51230000     -69.61010000
C      -46.83680000     -31.70660000     -70.63510000
C      -47.63060000     -32.87420000     -70.68210000
C      -47.38610000     -33.86010000     -69.74070000
C      -46.34220000     -33.76990000     -68.79750000
C      -45.65120000     -32.55020000     -68.65240000
H      -45.27580000     -30.59360000     -69.50500000
H      -48.44800000     -32.97730000     -71.37610000
H      -46.05750000     -34.63790000     -68.17470000
H      -44.99170000     -32.52450000     -67.81780000
C      -48.18160000     -35.11830000     -69.69830000
H      -49.20830000     -35.02260000     -70.06620000
H      -48.18220000     -35.63420000     -68.69480000
C      -47.14190000     -30.51770000     -71.55100000
H      -48.13780000     -30.57460000     -71.95040000
H      -47.01060000     -29.62020000     -70.97490000
S      -47.40620000     -36.42370000     -70.89350000
S      -45.96190000     -30.32980000     -72.93720000
C      -47.17470000     -35.52430000     -72.40960000
H      -47.84160000     -35.91330000     -73.19140000
H      -47.35660000     -34.45720000     -72.13130000
C      -45.98150000     -31.86190000     -74.00670000
H      -46.36800000     -31.68550000     -74.98930000
H      -46.59530000     -32.56590000     -73.51020000
C      -44.60270000     -32.43460000     -74.19500000
H      -44.77200000     -33.39390000     -74.77670000
H      -43.96450000     -31.84310000     -74.90370000
C      -45.63940000     -35.55970000     -72.90250000
H      -45.68860000     -34.93900000     -73.78740000
H      -45.49710000     -36.49030000     -73.29070000
C      -44.61250000     -35.04360000     -71.92350000
C      -44.20910000     -35.84680000     -70.90890000
C      -43.93250000     -33.75810000     -72.00910000
H      -44.73360000     -36.75580000     -70.55420000
C      -43.04040000     -33.61710000     -70.92050000
C      -43.81460000     -32.65600000     -72.96020000
C      -42.85700000     -31.73630000     -72.57280000
S      -43.15880000     -34.99540000     -69.76470000
S      -42.15080000     -32.13300000     -71.00530000
H      -42.59350000     -30.92750000     -73.15580000
