40
Properties=species:S:1:pos:R:3 #=T CELL(abcABC):=T 1.889726e+02=T 90.00000=T Traj:=T positionsangstrom=T Step:=T 0=T Bead:=T pbc="F F F"
C      -45.59660000     -31.40360000     -69.91430000
C      -46.64730000     -31.50880000     -70.80340000
C      -47.54610000     -32.62510000     -70.68630000
C      -47.26590000     -33.70940000     -69.80260000
C      -46.15210000     -33.59570000     -68.94400000
C      -45.33920000     -32.43420000     -69.10580000
H      -44.94800000     -30.53810000     -69.82320000
H      -48.35910000     -32.68640000     -71.37040000
H      -45.93330000     -34.43720000     -68.32410000
H      -44.44100000     -32.35760000     -68.47900000
C      -48.23050000     -34.86430000     -69.77120000
H      -49.19400000     -34.46500000     -70.10090000
H      -48.31490000     -35.21660000     -68.76050000
C      -46.98050000     -30.31880000     -71.61110000
H      -47.94940000     -30.46560000     -72.04090000
H      -46.91790000     -29.37650000     -71.09150000
S      -47.78370000     -36.25880000     -70.93580000
S      -45.75580000     -30.23980000     -73.08660000
C      -47.04750000     -35.40400000     -72.39290000
H      -47.70530000     -35.73420000     -73.26780000
H      -47.00300000     -34.36780000     -72.30670000
C      -45.97890000     -31.87510000     -73.89010000
H      -46.59740000     -31.74090000     -74.72560000
H      -46.60080000     -32.41450000     -73.26420000
C      -44.66830000     -32.70990000     -74.20490000
H      -44.89010000     -33.70480000     -74.61030000
H      -44.00770000     -32.18700000     -74.91200000
C      -45.60460000     -35.87060000     -72.78280000
H      -45.44330000     -35.46870000     -73.74660000
H      -45.64130000     -37.00110000     -72.80920000
C      -44.50490000     -35.38360000     -71.84380000
C      -44.30920000     -35.93230000     -70.60740000
C      -43.85540000     -34.06410000     -71.96730000
H      -44.52410000     -36.93070000     -70.27580000
C      -43.11970000     -33.79200000     -70.81310000
C      -43.88950000     -32.87550000     -72.90750000
C      -43.04010000     -31.86410000     -72.46900000
S      -43.16900000     -35.08000000     -69.60190000
S      -42.43500000     -32.21560000     -70.84580000
H      -42.77530000     -30.88000000     -73.03040000
