40
Properties=species:S:1:pos:R:3 #=T CELL(abcABC):=T 1.889726e+02=T 90.00000=T Traj:=T positionsangstrom=T Step:=T 0=T Bead:=T pbc="F F F"
C      -45.60470000     -31.19730000     -69.72560000
C      -46.57920000     -31.01280000     -70.78650000
C      -47.65260000     -31.91220000     -70.91730000
C      -47.68170000     -33.04610000     -70.18140000
C      -46.61330000     -33.29270000     -69.28210000
C      -45.54390000     -32.41060000     -69.09140000
H      -44.85060000     -30.42270000     -69.54530000
H      -48.51350000     -31.64220000     -71.58490000
H      -46.41690000     -34.16620000     -68.60690000
H      -44.85690000     -32.63730000     -68.28400000
C      -48.73620000     -34.18840000     -70.35340000
H      -49.35330000     -34.00410000     -71.23060000
H      -49.38530000     -34.19620000     -69.52860000
C      -46.31950000     -29.82550000     -71.65660000
H      -47.15290000     -29.18940000     -71.65630000
H      -45.44380000     -29.25110000     -71.27530000
S      -47.81340000     -35.74750000     -70.60570000
S      -45.99050000     -30.24530000     -73.38840000
C      -46.85280000     -35.37780000     -72.24340000
H      -47.63180000     -35.64280000     -73.01650000
H      -46.67740000     -34.28890000     -72.17040000
C      -46.19740000     -32.12960000     -73.72080000
H      -46.82270000     -32.08680000     -74.61230000
H      -46.93160000     -32.48300000     -72.94730000
C      -44.89360000     -32.93220000     -73.88960000
H      -45.34380000     -33.85510000     -74.35110000
H      -44.26700000     -32.38900000     -74.58540000
C      -45.64320000     -36.26230000     -72.49480000
H      -45.41390000     -36.14510000     -73.55710000
H      -45.87340000     -37.26700000     -72.27660000
C      -44.48540000     -35.72860000     -71.67030000
C      -43.90630000     -36.41710000     -70.65610000
C      -43.82290000     -34.41020000     -71.88410000
H      -44.29770000     -37.41330000     -70.41330000
C      -42.87400000     -34.15900000     -70.87590000
C      -44.05540000     -33.18260000     -72.63240000
C      -43.18870000     -32.18440000     -72.22960000
S      -42.73140000     -35.51660000     -69.71970000
S      -42.24850000     -32.54620000     -70.85870000
H      -43.03850000     -31.27310000     -72.72910000
