40
Properties=species:S:1:pos:R:3 #=T CELL(abcABC):=T 1.889726e+02=T 90.00000=T Traj:=T positionsangstrom=T Step:=T 0=T Bead:=T pbc="F F F"
C      -42.36130000     -36.05810000     -71.94510000
C      -43.58330000     -35.97200000     -72.61010000
C      -43.80490000     -34.90190000     -73.47960000
C      -42.91710000     -33.82170000     -73.63520000
C      -41.78580000     -33.91270000     -72.81950000
C      -41.48820000     -34.97800000     -71.97330000
H      -42.17330000     -36.90940000     -71.33460000
H      -44.71730000     -34.89800000     -74.05150000
H      -40.94970000     -33.25010000     -73.01440000
H      -40.59950000     -34.85690000     -71.33470000
C      -43.15730000     -32.68820000     -74.61880000
H      -44.09270000     -32.90950000     -75.12540000
H      -42.34780000     -32.47270000     -75.30150000
C      -44.66790000     -37.00050000     -72.54410000
H      -45.54800000     -36.63740000     -73.18190000
H      -44.30550000     -38.01600000     -72.80090000
S      -43.29040000     -31.04620000     -73.78950000
S      -45.37360000     -37.29170000     -70.86870000
C      -44.25650000     -31.37150000     -72.24640000
H      -43.71460000     -31.94820000     -71.45050000
H      -44.34870000     -30.35120000     -71.86740000
C      -45.96640000     -35.64030000     -70.28100000
H      -46.60850000     -35.90940000     -69.42130000
H      -46.73410000     -35.29420000     -70.99270000
C      -45.09990000     -34.44270000     -69.75780000
H      -44.36550000     -34.65020000     -68.87450000
H      -44.48980000     -34.06220000     -70.63910000
C      -45.62710000     -32.06120000     -72.53280000
H      -45.43080000     -33.11600000     -72.72020000
H      -45.98610000     -31.51040000     -73.38970000
C      -46.57830000     -31.74340000     -71.43930000
C      -47.45100000     -30.66910000     -71.68710000
C      -46.76390000     -32.39750000     -70.21200000
H      -47.49840000     -29.83510000     -72.37190000
C      -47.89030000     -31.88720000     -69.50160000
C      -46.12280000     -33.38020000     -69.34400000
C      -46.57480000     -33.33090000     -68.02340000
S      -48.64320000     -30.61130000     -70.42330000
S      -47.94130000     -32.25810000     -67.77450000
H      -46.12550000     -33.83850000     -67.15920000
