40
Properties=species:S:1:pos:R:3 #=T CELL(abcABC):=T 1.889726e+02=T 90.00000=T Traj:=T positionsangstrom=T Step:=T 0=T Bead:=T pbc="F F F"
C      -42.13630000     -36.05540000     -71.80300000
C      -43.39740000     -36.09560000     -72.46180000
C      -43.79660000     -35.07180000     -73.34450000
C      -42.87660000     -34.06440000     -73.70900000
C      -41.56090000     -34.10120000     -73.13200000
C      -41.23720000     -35.03910000     -72.14990000
H      -41.79380000     -36.87340000     -71.19190000
H      -44.77060000     -34.94740000     -73.77860000
H      -40.91340000     -33.33290000     -73.36850000
H      -40.17880000     -34.95290000     -71.80740000
C      -43.21680000     -33.03490000     -74.73120000
H      -44.15640000     -33.32610000     -75.29090000
H      -42.42890000     -32.90960000     -75.49590000
C      -44.31780000     -37.20850000     -72.09780000
H      -45.08240000     -37.44630000     -72.81880000
H      -43.78430000     -38.09140000     -72.11940000
S      -43.57980000     -31.26480000     -74.08640000
S      -45.07930000     -37.16690000     -70.38920000
C      -44.39110000     -31.51260000     -72.44730000
H      -43.78450000     -32.22810000     -71.93210000
H      -44.41250000     -30.55350000     -71.95400000
C      -46.35310000     -35.81640000     -70.27110000
H      -46.75590000     -35.99220000     -69.29850000
H      -47.06060000     -35.77680000     -71.10730000
C      -45.61030000     -34.45910000     -70.23000000
H      -44.80720000     -34.64470000     -69.63890000
H      -45.28200000     -34.22430000     -71.23120000
C      -45.81480000     -32.09380000     -72.62680000
H      -45.78510000     -33.20780000     -72.60840000
H      -46.14360000     -31.91400000     -73.66410000
C      -46.78630000     -31.62660000     -71.59000000
C      -47.60770000     -30.50550000     -71.63870000
C      -46.87860000     -32.18980000     -70.22240000
H      -47.58010000     -29.81890000     -72.45040000
C      -47.66750000     -31.41030000     -69.34860000
C      -46.43690000     -33.38730000     -69.61700000
C      -46.79160000     -33.56720000     -68.28290000
S      -48.36470000     -30.05450000     -70.11430000
S      -47.89580000     -32.22040000     -67.79610000
H      -46.47650000     -34.44670000     -67.67960000
