40
Properties=species:S:1:pos:R:3 #=T CELL(abcABC):=T 1.889726e+02=T 90.00000=T Traj:=T positionsangstrom=T Step:=T 0=T Bead:=T pbc="F F F"
C      -41.98200000     -36.13300000     -71.87140000
C      -43.34420000     -36.03990000     -72.29930000
C      -43.72700000     -35.03270000     -73.22620000
C      -42.73650000     -34.14480000     -73.71860000
C      -41.40180000     -34.16220000     -73.19020000
C      -41.06090000     -35.18850000     -72.30870000
H      -41.71800000     -36.87680000     -71.12900000
H      -44.72390000     -35.00120000     -73.64740000
H      -40.75030000     -33.35470000     -73.45900000
H      -40.03170000     -35.12110000     -72.02650000
C      -43.20610000     -33.11300000     -74.72570000
H      -44.01320000     -33.57220000     -75.23010000
H      -42.60370000     -32.84480000     -75.57600000
C      -44.34990000     -37.10100000     -72.01640000
H      -45.29340000     -36.88610000     -72.64370000
H      -43.89700000     -38.09360000     -72.26770000
S      -43.60880000     -31.40320000     -74.07450000
S      -44.93170000     -37.28750000     -70.22110000
C      -44.75410000     -31.64460000     -72.61570000
H      -44.36660000     -32.29550000     -71.83570000
H      -44.58970000     -30.57300000     -72.21750000
C      -46.10800000     -35.87500000     -70.34080000
H      -46.80850000     -36.05710000     -69.47580000
H      -46.87050000     -36.15040000     -71.11140000
C      -45.62140000     -34.44610000     -70.40030000
H      -44.59270000     -34.25230000     -70.00060000
H      -45.51380000     -34.11590000     -71.47350000
C      -46.25280000     -31.88750000     -72.85120000
H      -46.46860000     -32.86530000     -73.34090000
H      -46.60130000     -31.20110000     -73.66520000
C      -46.97500000     -31.50330000     -71.60650000
C      -47.43680000     -30.20560000     -71.45520000
C      -47.11930000     -32.19200000     -70.33460000
H      -47.69350000     -29.66790000     -72.40260000
C      -47.73390000     -31.44380000     -69.34190000
C      -46.58360000     -33.38580000     -69.75170000
C      -46.93540000     -33.53080000     -68.42970000
S      -48.29730000     -29.91160000     -69.96330000
S      -47.84710000     -32.22200000     -67.77250000
H      -46.74550000     -34.51160000     -67.91710000
