40
Properties=species:S:1:pos:R:3 #=T CELL(abcABC):=T 1.889726e+02=T 90.00000=T Traj:=T positionsangstrom=T Step:=T 0=T Bead:=T pbc="F F F"
C      -41.83040000     -36.16560000     -71.99720000
C      -43.25770000     -36.32160000     -72.32740000
C      -43.83650000     -35.39260000     -73.25260000
C      -43.10630000     -34.33720000     -73.77580000
C      -41.69540000     -34.29680000     -73.59500000
C      -41.10590000     -35.13870000     -72.62360000
H      -41.41270000     -36.78470000     -71.27130000
H      -44.90970000     -35.36670000     -73.45240000
H      -41.05020000     -33.58540000     -74.09710000
H      -40.02310000     -35.01720000     -72.43800000
C      -43.77370000     -33.36170000     -74.72390000
H      -44.83660000     -33.64180000     -74.92510000
H      -43.14730000     -33.36480000     -75.64950000
C      -44.03230000     -37.31780000     -71.62040000
H      -44.94130000     -37.50310000     -72.10260000
H      -43.53110000     -38.27830000     -71.60600000
S      -43.66340000     -31.58960000     -74.14160000
S      -44.39430000     -36.81600000     -69.86510000
C      -44.54470000     -31.66690000     -72.53500000
H      -44.06600000     -32.36190000     -71.90480000
H      -44.48180000     -30.68250000     -72.08100000
C      -45.94040000     -35.87290000     -69.81370000
H      -46.12770000     -35.87880000     -68.71200000
H      -46.66710000     -36.36230000     -70.44420000
C      -45.66150000     -34.43020000     -70.26030000
H      -44.68180000     -34.25120000     -69.79700000
H      -45.58830000     -34.35730000     -71.32160000
C      -46.02580000     -32.02510000     -72.76520000
H      -46.17040000     -33.10120000     -72.72490000
H      -46.42450000     -31.61680000     -73.70000000
C      -46.78600000     -31.41280000     -71.58510000
C      -47.19280000     -30.08570000     -71.48290000
C      -47.04560000     -32.07360000     -70.31180000
H      -47.15530000     -29.39370000     -72.29960000
C      -47.80370000     -31.26730000     -69.47550000
C      -46.70100000     -33.39780000     -69.78240000
C      -47.34500000     -33.60580000     -68.57270000
S      -48.20000000     -29.69210000     -70.05690000
S      -48.31720000     -32.22530000     -68.06160000
H      -47.33070000     -34.25120000     -67.70970000
