40
Properties=species:S:1:pos:R:3 #=T CELL(abcABC):=T 1.889726e+02=T 90.00000=T Traj:=T positionsangstrom=T Step:=T 0=T Bead:=T pbc="F F F"
C      -41.86590000     -36.18910000     -72.12380000
C      -43.29390000     -36.18180000     -72.26160000
C      -43.93490000     -35.21700000     -73.03340000
C      -43.14460000     -34.30610000     -73.72670000
C      -41.76300000     -34.22860000     -73.56700000
C      -41.16440000     -35.12900000     -72.74910000
H      -41.36070000     -37.02260000     -71.63930000
H      -44.98220000     -35.25680000     -73.26040000
H      -41.23770000     -33.35930000     -73.98410000
H      -40.12680000     -34.95900000     -72.55930000
C      -43.86460000     -33.40280000     -74.73420000
H      -44.92280000     -33.51780000     -74.69700000
H      -43.63430000     -33.40880000     -75.80850000
C      -44.09500000     -37.19180000     -71.49450000
H      -45.16370000     -37.17830000     -71.88120000
H      -43.73790000     -38.30780000     -71.64410000
S      -43.54730000     -31.63940000     -74.41760000
S      -44.31860000     -37.03250000     -69.61010000
C      -44.23540000     -31.50420000     -72.67590000
H      -43.75040000     -32.20360000     -71.92820000
H      -44.02160000     -30.47120000     -72.34360000
C      -45.60690000     -35.67470000     -69.43520000
H      -45.67790000     -35.36670000     -68.34180000
H      -46.59120000     -36.14380000     -69.63400000
C      -45.59280000     -34.35670000     -70.23140000
H      -44.67870000     -33.73070000     -70.29350000
H      -45.83330000     -34.59270000     -71.22110000
C      -45.79210000     -31.81230000     -72.71550000
H      -45.95100000     -32.82100000     -72.96870000
H      -46.14830000     -31.13500000     -73.57370000
C      -46.72250000     -31.43490000     -71.61230000
C      -47.34430000     -30.21280000     -71.56370000
C      -47.04670000     -32.14780000     -70.30730000
H      -47.20920000     -29.49920000     -72.39820000
C      -47.88320000     -31.37450000     -69.54260000
C      -46.67570000     -33.42300000     -69.71060000
C      -47.37880000     -33.59400000     -68.55510000
S      -48.34310000     -29.81240000     -70.14690000
S      -48.47150000     -32.20760000     -68.12750000
H      -47.49110000     -34.49180000     -67.92320000
