40
Properties=species:S:1:pos:R:3 #=T CELL(abcABC):=T 1.889726e+02=T 90.00000=T Traj:=T positionsangstrom=T Step:=T 0=T Bead:=T pbc="F F F"
C      -42.00820000     -36.05930000     -71.91070000
C      -43.41820000     -36.16080000     -72.19280000
C      -44.02530000     -35.27970000     -73.11960000
C      -43.20380000     -34.37340000     -73.81690000
C      -41.85130000     -34.36190000     -73.63900000
C      -41.19200000     -35.17230000     -72.66260000
H      -41.61830000     -36.59680000     -71.02470000
H      -45.15170000     -35.13500000     -73.14420000
H      -41.22710000     -33.66060000     -74.25330000
H      -40.13430000     -35.08860000     -72.46680000
C      -43.88030000     -33.40480000     -74.79400000
H      -44.94880000     -33.72340000     -74.79420000
H      -43.56530000     -33.65010000     -75.84430000
C      -44.22870000     -37.14090000     -71.38880000
H      -45.21400000     -37.12780000     -71.75280000
H      -43.67710000     -38.03010000     -71.45600000
S      -43.56700000     -31.62590000     -74.44900000
S      -44.11730000     -36.77370000     -69.54670000
C      -44.36570000     -31.27110000     -72.80490000
H      -43.67590000     -31.50190000     -72.04200000
H      -44.46940000     -30.20580000     -72.82580000
C      -45.55440000     -35.65660000     -69.22620000
H      -45.40550000     -35.44930000     -68.14690000
H      -46.48440000     -36.18950000     -69.22670000
C      -45.59800000     -34.40740000     -70.10520000
H      -44.57400000     -34.04720000     -70.17060000
H      -45.78600000     -34.56610000     -71.23940000
C      -45.75700000     -31.95290000     -72.70360000
H      -45.66220000     -33.06840000     -72.70330000
H      -46.34960000     -31.88530000     -73.62700000
C      -46.60510000     -31.51030000     -71.51250000
C      -47.20060000     -30.24210000     -71.61570000
C      -46.96080000     -32.14900000     -70.27680000
H      -47.06360000     -29.44420000     -72.40620000
C      -47.93670000     -31.44200000     -69.60720000
C      -46.54620000     -33.34580000     -69.59970000
C      -47.27450000     -33.52730000     -68.45330000
S      -48.52420000     -30.01180000     -70.39370000
S      -48.40640000     -32.24030000     -68.17580000
H      -47.19170000     -34.46450000     -67.88140000
