40
Properties=species:S:1:pos:R:3 #=T CELL(abcABC):=T 1.889726e+02=T 90.00000=T Traj:=T positionsangstrom=T Step:=T 0=T Bead:=T pbc="F F F"
C      -41.99140000     -36.04800000     -72.01640000
C      -43.40870000     -36.07900000     -72.15570000
C      -44.04150000     -35.27360000     -73.13200000
C      -43.28770000     -34.36150000     -73.84210000
C      -41.89610000     -34.34460000     -73.70210000
C      -41.25020000     -35.20390000     -72.86870000
H      -41.63470000     -36.73680000     -71.26870000
H      -45.06460000     -35.41350000     -73.35360000
H      -41.35450000     -33.56970000     -74.26190000
H      -40.17090000     -35.24290000     -72.65440000
C      -43.92790000     -33.42310000     -74.88050000
H      -44.96230000     -33.43580000     -75.09450000
H      -43.37690000     -33.52280000     -75.83960000
C      -44.24280000     -36.99270000     -71.22810000
H      -45.34250000     -36.98360000     -71.46170000
H      -43.85290000     -38.03690000     -71.33670000
S      -43.58260000     -31.64930000     -74.50440000
S      -43.95200000     -36.70880000     -69.40900000
C      -44.53490000     -31.35640000     -72.90520000
H      -43.90240000     -31.22940000     -72.00530000
H      -44.93710000     -30.39140000     -73.10180000
C      -45.08810000     -35.45230000     -68.80010000
H      -44.67390000     -34.99580000     -67.93370000
H      -46.03680000     -35.86310000     -68.38960000
C      -45.44870000     -34.27250000     -69.76810000
H      -44.46050000     -33.71680000     -69.89220000
H      -45.73670000     -34.69370000     -70.69280000
C      -45.69630000     -32.33910000     -72.69570000
H      -45.42670000     -33.34720000     -72.44010000
H      -46.31570000     -32.30220000     -73.60110000
C      -46.66560000     -31.76500000     -71.60510000
C      -47.27690000     -30.57500000     -71.89900000
C      -47.02020000     -32.25530000     -70.31090000
H      -47.23720000     -30.06550000     -72.81310000
C      -48.01800000     -31.46910000     -69.63760000
C      -46.56420000     -33.30790000     -69.34320000
C      -47.33370000     -33.33700000     -68.22350000
S      -48.56620000     -30.15370000     -70.75290000
S      -48.49890000     -31.99980000     -68.09900000
H      -47.17080000     -34.00050000     -67.45260000
