40
Properties=species:S:1:pos:R:3 #=T CELL(abcABC):=T 1.889726e+02=T 90.00000=T Traj:=T positionsangstrom=T Step:=T 0=T Bead:=T pbc="F F F"
C      -41.89110000     -35.98190000     -71.90440000
C      -43.27500000     -36.03850000     -71.90690000
C      -43.94180000     -35.20580000     -72.89970000
C      -43.19310000     -34.44410000     -73.82490000
C      -41.77690000     -34.40820000     -73.71590000
C      -41.12750000     -35.14000000     -72.71160000
H      -41.39070000     -36.72880000     -71.22390000
H      -45.06740000     -35.43210000     -73.05060000
H      -41.13730000     -33.74530000     -74.31550000
H      -40.03550000     -35.25730000     -72.67140000
C      -43.86020000     -33.59820000     -74.97000000
H      -44.91650000     -33.97840000     -75.06130000
H      -43.34470000     -33.91120000     -75.85300000
C      -44.03340000     -36.98240000     -70.95750000
H      -45.13910000     -36.85130000     -71.05980000
H      -43.86310000     -38.06500000     -71.22730000
S      -43.74700000     -31.75800000     -74.83160000
S      -43.86520000     -36.46090000     -69.20520000
C      -44.54340000     -31.32490000     -73.09910000
H      -43.74020000     -31.59860000     -72.44120000
H      -44.83340000     -30.20840000     -73.08600000
C      -45.28500000     -35.45370000     -68.97310000
H      -45.22960000     -35.25210000     -67.88020000
H      -46.19170000     -36.03400000     -69.22390000
C      -45.28690000     -34.11540000     -69.82330000
H      -44.37480000     -33.63160000     -69.75230000
H      -45.34270000     -34.47040000     -70.83340000
C      -45.77290000     -32.14570000     -72.78540000
H      -45.53140000     -33.21580000     -72.58180000
H      -46.33480000     -32.16440000     -73.69200000
C      -46.76720000     -31.63360000     -71.65940000
C      -47.61600000     -30.60890000     -71.94670000
C      -47.02180000     -32.19110000     -70.27120000
H      -47.66030000     -30.05280000     -72.93030000
C      -48.03730000     -31.47230000     -69.60960000
C      -46.41900000     -33.23310000     -69.43180000
C      -47.16200000     -33.33970000     -68.27330000
S      -48.76040000     -30.29710000     -70.69350000
S      -48.49760000     -32.16560000     -68.10740000
H      -47.05000000     -33.95380000     -67.38030000
