40
Properties=species:S:1:pos:R:3 #=T CELL(abcABC):=T 1.889726e+02=T 90.00000=T Traj:=T positionsangstrom=T Step:=T 0=T Bead:=T pbc="F F F"
C      -41.42620000     -35.41900000     -71.55230000
C      -42.68640000     -35.90230000     -71.90750000
C      -43.31030000     -35.40460000     -73.05020000
C      -42.72670000     -34.41160000     -73.85220000
C      -41.43690000     -33.96760000     -73.47270000
C      -40.82480000     -34.46890000     -72.31970000
H      -40.86060000     -35.65150000     -70.65530000
H      -44.33660000     -35.73400000     -73.33440000
H      -40.83360000     -33.28520000     -74.08720000
H      -39.79210000     -34.10370000     -72.02490000
C      -43.55390000     -33.85800000     -74.91140000
H      -44.48780000     -34.48420000     -75.09550000
H      -43.05970000     -33.61100000     -75.80460000
C      -43.52450000     -36.83350000     -71.04750000
H      -44.45690000     -37.11310000     -71.55530000
H      -42.90870000     -37.74160000     -70.91050000
S      -44.17820000     -32.06570000     -74.67640000
S      -43.69810000     -36.12420000     -69.29460000
C      -44.91350000     -31.91410000     -72.96150000
H      -44.16720000     -32.22150000     -72.21340000
H      -44.99260000     -30.83340000     -72.68070000
C      -45.44690000     -35.59460000     -69.29530000
H      -45.71470000     -35.56260000     -68.21870000
H      -46.04720000     -36.40730000     -69.75860000
C      -45.71260000     -34.29720000     -70.14780000
H      -44.86950000     -33.66700000     -70.38370000
H      -45.93140000     -34.64720000     -71.16150000
C      -46.35610000     -32.56480000     -72.86360000
H      -46.18460000     -33.66710000     -72.81290000
H      -46.86760000     -32.39400000     -73.81710000
C      -47.33070000     -31.94920000     -71.82900000
C      -48.12870000     -30.87820000     -72.10760000
C      -47.37340000     -32.30300000     -70.43540000
H      -48.34100000     -30.42610000     -73.04130000
C      -48.30390000     -31.60520000     -69.66230000
C      -46.70600000     -33.37740000     -69.62960000
C      -46.96590000     -33.23550000     -68.30560000
S      -48.94980000     -30.24420000     -70.64440000
S      -48.17360000     -31.96940000     -67.97620000
H      -46.58590000     -33.89860000     -67.54170000
