40
Properties=species:S:1:pos:R:3 #=T CELL(abcABC):=T 1.889726e+02=T 90.00000=T Traj:=T positionsangstrom=T Step:=T 0=T Bead:=T pbc="F F F"
C      -41.26940000     -35.27770000     -71.41110000
C      -42.62410000     -35.64410000     -71.50410000
C      -43.37300000     -35.09960000     -72.53080000
C      -42.82790000     -34.21280000     -73.53730000
C      -41.51220000     -33.78970000     -73.29950000
C      -40.74530000     -34.31730000     -72.29080000
H      -40.69780000     -35.67460000     -70.58550000
H      -44.43620000     -35.31340000     -72.54490000
H      -41.03480000     -33.00880000     -73.81670000
H      -39.73210000     -34.03360000     -72.22390000
C      -43.62830000     -33.84810000     -74.74580000
H      -44.44620000     -34.55210000     -74.94040000
H      -42.88150000     -33.91220000     -75.65620000
C      -43.13080000     -36.74600000     -70.64420000
H      -44.02340000     -37.10360000     -71.20030000
H      -42.36540000     -37.51570000     -70.63370000
S      -44.47780000     -32.18440000     -74.77000000
S      -43.80600000     -36.23870000     -68.98010000
C      -45.26930000     -32.17430000     -73.15160000
H      -44.64710000     -32.70820000     -72.45730000
H      -45.13120000     -31.15110000     -72.87820000
C      -45.55780000     -35.72960000     -69.48730000
H      -46.05910000     -35.46500000     -68.54870000
H      -46.02000000     -36.62330000     -69.95700000
C      -45.65540000     -34.44230000     -70.38710000
H      -44.68500000     -33.94410000     -70.55150000
H      -46.06770000     -34.64910000     -71.32010000
C      -46.73560000     -32.55400000     -73.25320000
H      -46.83550000     -33.59470000     -73.52710000
H      -47.11020000     -32.07390000     -74.17770000
C      -47.52070000     -32.08210000     -72.08110000
C      -48.36360000     -31.01900000     -72.19020000
C      -47.39220000     -32.54640000     -70.61360000
H      -48.54780000     -30.48780000     -73.06420000
C      -48.03840000     -31.57920000     -69.82880000
C      -46.58730000     -33.45810000     -69.83260000
C      -46.76720000     -33.17630000     -68.49110000
S      -48.87690000     -30.28010000     -70.67970000
S      -47.71810000     -31.80480000     -68.16780000
H      -46.32990000     -33.74940000     -67.67010000
