40
Properties=species:S:1:pos:R:3 #=T CELL(abcABC):=T 1.889726e+02=T 90.00000=T Traj:=T positionsangstrom=T Step:=T 0=T Bead:=T pbc="F F F"
C      -41.42730000     -34.78930000     -71.10020000
C      -42.49580000     -35.66660000     -71.43940000
C      -43.17480000     -35.52580000     -72.65970000
C      -42.86710000     -34.43820000     -73.50090000
C      -41.77450000     -33.62470000     -73.19640000
C      -41.10610000     -33.76310000     -71.96370000
H      -40.77170000     -35.00640000     -70.19370000
H      -44.14500000     -36.12090000     -72.79830000
H      -41.50820000     -32.85250000     -73.87680000
H      -40.32820000     -33.05470000     -71.73170000
C      -43.83740000     -34.20780000     -74.72570000
H      -44.75550000     -34.92130000     -74.63390000
H      -43.36550000     -34.39310000     -75.70980000
C      -42.80340000     -36.74160000     -70.45850000
H      -43.38250000     -37.59160000     -70.92260000
H      -42.02610000     -37.27980000     -69.94760000
S      -44.20910000     -32.40040000     -74.73820000
S      -43.76960000     -35.98870000     -69.03450000
C      -45.21170000     -32.03760000     -73.19630000
H      -44.66900000     -32.42950000     -72.28590000
H      -45.36130000     -30.96720000     -73.13810000
C      -45.43710000     -35.74180000     -69.82060000
H      -46.18640000     -35.88500000     -69.02620000
H      -45.70150000     -36.56700000     -70.55260000
C      -45.61440000     -34.37100000     -70.52370000
H      -44.59800000     -33.95790000     -70.71820000
H      -46.01300000     -34.57660000     -71.47520000
C      -46.71760000     -32.53180000     -73.28590000
H      -46.74720000     -33.61240000     -73.37320000
H      -47.23090000     -32.10580000     -74.17720000
C      -47.55570000     -32.12380000     -72.04320000
C      -48.58660000     -31.27500000     -72.22100000
C      -47.21710000     -32.34740000     -70.65330000
H      -49.06070000     -31.03120000     -73.14000000
C      -47.97970000     -31.49880000     -69.87700000
C      -46.46610000     -33.29170000     -69.88140000
C      -46.61980000     -33.02710000     -68.51230000
S      -49.29200000     -30.66100000     -70.75060000
S      -47.61910000     -31.70640000     -68.16810000
H      -46.11820000     -33.56060000     -67.69970000
