40
Properties=species:S:1:pos:R:3 #=T CELL(abcABC):=T 1.889726e+02=T 90.00000=T Traj:=T positionsangstrom=T Step:=T 0=T Bead:=T pbc="F F F"
C      -41.33890000     -34.83190000     -71.09590000
C      -42.40270000     -35.73430000     -71.37060000
C      -43.24290000     -35.50210000     -72.55270000
C      -43.03070000     -34.37760000     -73.38630000
C      -42.02340000     -33.49410000     -73.00130000
C      -41.21150000     -33.74670000     -71.92270000
H      -40.79650000     -34.97140000     -70.12750000
H      -43.92160000     -36.25280000     -72.92790000
H      -41.89760000     -32.59480000     -73.55320000
H      -40.36880000     -33.10190000     -71.71210000
C      -43.86040000     -34.18710000     -74.59780000
H      -44.63490000     -34.86680000     -74.62230000
H      -43.28960000     -34.37520000     -75.53020000
C      -42.78750000     -36.78160000     -70.38470000
H      -43.40660000     -37.46020000     -70.89200000
H      -41.92900000     -37.30280000     -69.94170000
S      -44.41970000     -32.45020000     -74.82320000
S      -43.65430000     -36.04590000     -68.94190000
C      -45.28560000     -32.13100000     -73.15500000
H      -44.75710000     -32.73490000     -72.37810000
H      -45.05190000     -31.05940000     -72.95970000
C      -45.35060000     -35.50330000     -69.66610000
H      -45.99020000     -35.37560000     -68.82160000
H      -45.70700000     -36.32310000     -70.26650000
C      -45.35070000     -34.24910000     -70.57260000
H      -44.34850000     -33.79390000     -70.59160000
H      -45.57410000     -34.51830000     -71.61050000
C      -46.77090000     -32.49650000     -73.32830000
H      -46.88970000     -33.56220000     -73.58270000
H      -47.10350000     -32.03960000     -74.23110000
C      -47.58840000     -32.07310000     -72.14650000
C      -48.49920000     -31.09330000     -72.32610000
C      -47.25270000     -32.38650000     -70.79210000
H      -48.91090000     -30.87490000     -73.29660000
C      -48.10820000     -31.63450000     -69.88530000
C      -46.28890000     -33.20050000     -70.05470000
C      -46.34660000     -32.96710000     -68.65700000
S      -49.20710000     -30.60970000     -70.73370000
S      -47.71690000     -31.91680000     -68.26640000
H      -45.76240000     -33.54740000     -67.95770000
