40
Properties=species:S:1:pos:R:3 #=T CELL(abcABC):=T 1.889726e+02=T 90.00000=T Traj:=T positionsangstrom=T Step:=T 0=T Bead:=T pbc="F F F"
C      -41.38600000     -34.68240000     -71.00680000
C      -42.40350000     -35.58820000     -71.29150000
C      -43.17160000     -35.38230000     -72.50510000
C      -43.00080000     -34.25480000     -73.30820000
C      -41.96040000     -33.37140000     -72.96420000
C      -41.10750000     -33.63960000     -71.92210000
H      -40.75960000     -34.79870000     -70.15040000
H      -43.96590000     -36.09450000     -72.73840000
H      -41.79040000     -32.50840000     -73.60720000
H      -40.26370000     -32.98940000     -71.65080000
C      -43.78420000     -34.17950000     -74.58960000
H      -44.69620000     -34.82290000     -74.64110000
H      -43.05810000     -34.41670000     -75.38470000
C      -42.74000000     -36.77930000     -70.37720000
H      -43.32980000     -37.57100000     -70.82100000
H      -41.76260000     -37.16860000     -70.00600000
S      -44.44540000     -32.48930000     -75.06740000
S      -43.73530000     -36.08160000     -68.93820000
C      -45.42760000     -32.01370000     -73.59440000
H      -44.82450000     -32.00530000     -72.69770000
H      -45.68540000     -30.97890000     -73.76180000
C      -45.25280000     -35.52020000     -69.79560000
H      -46.04050000     -35.42300000     -68.99890000
H      -45.52040000     -36.37790000     -70.43130000
C      -45.27090000     -34.11770000     -70.44860000
H      -44.30490000     -33.64950000     -70.32420000
H      -45.52440000     -34.27180000     -71.52940000
C      -46.76270000     -32.77370000     -73.32650000
H      -46.50940000     -33.82750000     -73.09620000
H      -47.44620000     -32.78360000     -74.20340000
C      -47.48490000     -32.13010000     -72.10080000
C      -48.41980000     -31.15570000     -72.21790000
C      -47.23100000     -32.44030000     -70.72900000
H      -48.74310000     -30.71570000     -73.15140000
C      -48.10710000     -31.74510000     -69.87590000
C      -46.30800000     -33.20530000     -69.93040000
C      -46.50990000     -33.09550000     -68.56970000
S      -49.15680000     -30.63520000     -70.69160000
S      -47.81920000     -31.95830000     -68.19730000
H      -45.97080000     -33.59770000     -67.76880000
