40
Properties=species:S:1:pos:R:3 #=T CELL(abcABC):=T 1.889726e+02=T 90.00000=T Traj:=T positionsangstrom=T Step:=T 0=T Bead:=T pbc="F F F"
C      -41.58400000     -34.00700000     -70.94760000
C      -42.37680000     -35.10400000     -71.25250000
C      -43.09370000     -35.15200000     -72.38870000
C      -42.90900000     -34.18220000     -73.32760000
C      -41.92910000     -33.17520000     -73.18290000
C      -41.41100000     -33.01980000     -71.92130000
H      -40.96230000     -33.94900000     -70.00500000
H      -43.76610000     -35.95400000     -72.66820000
H      -41.78420000     -32.55170000     -74.02740000
H      -40.73610000     -32.28290000     -71.77120000
C      -43.65240000     -34.28670000     -74.66440000
H      -44.34930000     -35.06890000     -74.55890000
H      -42.93550000     -34.63170000     -75.43910000
C      -42.31300000     -36.36560000     -70.40280000
H      -42.41060000     -37.22560000     -71.06290000
H      -41.42070000     -36.34440000     -69.71200000
S      -44.48330000     -32.70900000     -75.06500000
S      -43.70420000     -36.38220000     -69.13400000
C      -45.27450000     -32.08810000     -73.47040000
H      -44.67820000     -32.14300000     -72.57800000
H      -45.63850000     -31.02870000     -73.62440000
C      -45.20110000     -35.44250000     -69.74420000
H      -45.88230000     -35.46780000     -68.86100000
H      -45.77980000     -36.02650000     -70.50690000
C      -45.07750000     -33.99010000     -70.17390000
H      -44.30580000     -33.39470000     -69.64180000
H      -44.89930000     -33.79280000     -71.20480000
C      -46.52890000     -32.90980000     -73.15150000
H      -46.23980000     -33.92610000     -72.86000000
H      -47.20560000     -33.06670000     -73.93810000
C      -47.38450000     -32.27150000     -72.08620000
C      -48.33050000     -31.30170000     -72.30500000
C      -47.20330000     -32.51610000     -70.64190000
H      -48.60150000     -30.81150000     -73.27050000
C      -48.23460000     -31.86980000     -69.90310000
C      -46.34150000     -33.28090000     -69.78360000
C      -46.78300000     -33.15990000     -68.42630000
S      -49.09770000     -30.76000000     -70.83470000
S      -48.20110000     -32.13070000     -68.20650000
H      -46.45830000     -33.59170000     -67.52520000
