40
Properties=species:S:1:pos:R:3 #=T CELL(abcABC):=T 1.889726e+02=T 90.00000=T Traj:=T positionsangstrom=T Step:=T 0=T Bead:=T pbc="F F F"
C      -48.39550000     -32.97410000     -72.39600000
C      -47.69080000     -31.76880000     -72.64790000
C      -46.74560000     -31.63370000     -73.70540000
C      -46.49200000     -32.72500000     -74.52840000
C      -47.19690000     -33.87340000     -74.27430000
C      -48.21110000     -34.02870000     -73.33370000
H      -49.23670000     -33.02250000     -71.75250000
H      -46.19180000     -30.72890000     -73.57750000
H      -46.98850000     -34.69680000     -75.00300000
H      -48.92880000     -34.83110000     -73.25800000
C      -45.27040000     -32.67510000     -75.40080000
H      -45.20940000     -31.87770000     -76.06770000
H      -45.41530000     -33.51070000     -76.14080000
C      -47.89580000     -30.58390000     -71.76950000
H      -48.49990000     -29.89150000     -72.34800000
H      -48.47200000     -30.87830000     -70.95820000
S      -43.80740000     -32.56170000     -74.38030000
S      -46.47150000     -29.70080000     -71.04370000
C      -44.02900000     -34.03550000     -73.18260000
H      -45.10470000     -34.15530000     -72.90840000
H      -43.63590000     -34.98480000     -73.64930000
C      -45.72170000     -30.91670000     -69.77960000
H      -46.57960000     -31.37500000     -69.23010000
H      -45.07960000     -30.28050000     -69.10570000
C      -44.95880000     -32.23220000     -70.21230000
H      -45.44160000     -32.60480000     -71.17030000
H      -43.86110000     -32.02170000     -70.38890000
C      -43.09430000     -33.94300000     -71.97170000
H      -43.05380000     -32.97590000     -71.54900000
H      -42.08340000     -34.04830000     -72.25260000
C      -43.27740000     -34.84360000     -70.75030000
C      -42.85820000     -36.16060000     -70.72060000
C      -44.16690000     -34.49130000     -69.65070000
H      -42.11250000     -36.53730000     -71.44240000
C      -44.35740000     -35.57360000     -68.80710000
C      -44.98650000     -33.37520000     -69.27220000
C      -45.61280000     -33.49160000     -68.05320000
S      -43.33390000     -37.00820000     -69.24460000
S      -45.36770000     -35.13570000     -67.39900000
H      -46.42550000     -32.86070000     -67.79810000
