40
Properties=species:S:1:pos:R:3 #=T CELL(abcABC):=T 1.889726e+02=T 90.00000=T Traj:=T positionsangstrom=T Step:=T 0=T Bead:=T pbc="F F F"
C      -48.62660000     -32.50700000     -72.55760000
C      -47.71390000     -31.41040000     -72.61070000
C      -46.56530000     -31.57870000     -73.33940000
C      -46.50320000     -32.60850000     -74.29450000
C      -47.38990000     -33.71940000     -74.21660000
C      -48.37640000     -33.68240000     -73.27200000
H      -49.52410000     -32.47630000     -71.85530000
H      -45.76420000     -30.84190000     -73.42960000
H      -47.34820000     -34.48820000     -74.91160000
H      -49.21030000     -34.43140000     -73.36680000
C      -45.35710000     -32.59500000     -75.38840000
H      -45.30600000     -31.57820000     -75.84120000
H      -45.52240000     -33.37930000     -76.11110000
C      -47.98190000     -30.26170000     -71.73490000
H      -48.36470000     -29.38050000     -72.18350000
H      -48.84750000     -30.53510000     -71.08550000
S      -43.70460000     -33.01180000     -74.64570000
S      -46.65270000     -29.56880000     -70.66450000
C      -44.07680000     -34.05070000     -73.16630000
H      -45.03850000     -33.67540000     -72.75850000
H      -44.17850000     -35.06760000     -73.59270000
C      -45.95100000     -31.04260000     -69.58540000
H      -46.84820000     -31.44550000     -69.09420000
H      -45.24480000     -30.59530000     -68.81870000
C      -45.15620000     -32.25790000     -70.26060000
H      -45.69970000     -32.54050000     -71.14510000
H      -44.18330000     -31.91410000     -70.51980000
C      -42.97150000     -34.04800000     -72.12920000
H      -42.66160000     -33.03940000     -71.82100000
H      -42.11480000     -34.51370000     -72.61570000
C      -43.26470000     -34.93310000     -70.91290000
C      -42.61000000     -36.12850000     -70.77790000
C      -44.09660000     -34.57570000     -69.76980000
H      -41.97950000     -36.60240000     -71.48460000
C      -44.21840000     -35.62510000     -68.88550000
C      -45.00980000     -33.50820000     -69.43130000
C      -45.59000000     -33.76630000     -68.20220000
S      -43.10370000     -36.96330000     -69.24310000
S      -45.27490000     -35.29760000     -67.49420000
H      -46.32140000     -33.17170000     -67.66430000
