40
Properties=species:S:1:pos:R:3 #=T CELL(abcABC):=T 1.889726e+02=T 90.00000=T Traj:=T positionsangstrom=T Step:=T 0=T Bead:=T pbc="F F F"
C      -48.76730000     -31.80880000     -72.53350000
C      -47.71160000     -30.93000000     -72.66570000
C      -46.68630000     -31.19650000     -73.63940000
C      -46.64240000     -32.51050000     -74.25330000
C      -47.69030000     -33.43610000     -73.98710000
C      -48.81320000     -33.05110000     -73.20670000
H      -49.65550000     -31.59790000     -72.02610000
H      -45.92490000     -30.43020000     -73.80710000
H      -47.53980000     -34.45150000     -74.29140000
H      -49.68800000     -33.72620000     -73.25650000
C      -45.47820000     -32.81050000     -75.22670000
H      -45.52620000     -32.12560000     -76.05050000
H      -45.65370000     -33.77850000     -75.56810000
C      -47.65000000     -29.73170000     -71.73400000
H      -47.47040000     -28.77550000     -72.16190000
H      -48.56790000     -29.58530000     -71.21190000
S      -43.80510000     -32.77140000     -74.44550000
S      -46.34970000     -29.91820000     -70.40580000
C      -44.02790000     -34.08080000     -73.23760000
H      -45.03920000     -33.96780000     -72.78040000
H      -43.94290000     -35.04460000     -73.73430000
C      -46.49640000     -31.64930000     -69.69390000
H      -47.58380000     -32.10310000     -69.81400000
H      -46.17350000     -31.54390000     -68.62340000
C      -45.45250000     -32.55910000     -70.35550000
H      -45.69880000     -32.78140000     -71.47100000
H      -44.44160000     -32.05560000     -70.28990000
C      -42.99000000     -33.97420000     -72.06680000
H      -43.03340000     -32.96210000     -71.67080000
H      -41.98660000     -34.03970000     -72.37960000
C      -43.23180000     -34.96940000     -70.97560000
C      -42.34750000     -35.99950000     -70.81510000
C      -44.21320000     -34.81500000     -69.95350000
H      -41.52610000     -36.35030000     -71.50620000
C      -44.01380000     -35.79710000     -68.93860000
C      -45.29670000     -33.91600000     -69.60650000
C      -45.86420000     -34.28680000     -68.42550000
S      -42.59080000     -36.77600000     -69.26660000
S      -45.21470000     -35.68880000     -67.62830000
H      -46.57500000     -33.66090000     -67.94050000
