40
Properties=species:S:1:pos:R:3 #=T CELL(abcABC):=T 1.889726e+02=T 90.00000=T Traj:=T positionsangstrom=T Step:=T 0=T Bead:=T pbc="F F F"
C      -48.70160000     -31.74820000     -72.37240000
C      -47.57680000     -30.90960000     -72.52940000
C      -46.58240000     -31.26820000     -73.41670000
C      -46.71040000     -32.43150000     -74.28950000
C      -47.85070000     -33.22710000     -74.16400000
C      -48.80340000     -32.85710000     -73.14550000
H      -49.45850000     -31.58560000     -71.55890000
H      -45.58250000     -30.73310000     -73.46310000
H      -48.02760000     -34.05690000     -74.74940000
H      -49.73380000     -33.40210000     -73.03180000
C      -45.58710000     -32.79310000     -75.22450000
H      -45.53740000     -32.15800000     -76.18480000
H      -45.76890000     -33.78730000     -75.66150000
C      -47.44450000     -29.65590000     -71.75720000
H      -46.91230000     -28.93990000     -72.35560000
H      -48.47080000     -29.35880000     -71.38290000
S      -43.93800000     -32.69650000     -74.40770000
S      -46.36800000     -30.02240000     -70.24790000
C      -44.07520000     -34.04600000     -73.10670000
H      -44.97510000     -33.99270000     -72.56230000
H      -44.01580000     -35.02610000     -73.56140000
C      -46.76200000     -31.72270000     -69.77300000
H      -47.76170000     -31.98680000     -69.89870000
H      -46.58840000     -31.83550000     -68.72190000
C      -45.81670000     -32.77930000     -70.50810000
H      -46.48570000     -33.27250000     -71.24270000
H      -44.96270000     -32.21910000     -70.89220000
C      -42.88800000     -33.80990000     -72.12140000
H      -42.82570000     -32.71420000     -71.77350000
H      -41.94450000     -34.01440000     -72.66660000
C      -42.98050000     -34.73780000     -70.89890000
C      -42.07540000     -35.75860000     -70.62950000
C      -44.04150000     -34.69450000     -69.88570000
H      -41.27850000     -35.89590000     -71.34760000
C      -43.95460000     -35.84940000     -69.04730000
C      -45.24880000     -33.90270000     -69.60880000
C      -45.88540000     -34.39300000     -68.49440000
S      -42.64230000     -36.90390000     -69.41810000
S      -45.12040000     -35.87830000     -67.77870000
H      -46.87820000     -34.14590000     -68.23260000
