40
Properties=species:S:1:pos:R:3 #=T CELL(abcABC):=T 1.889726e+02=T 90.00000=T Traj:=T positionsangstrom=T Step:=T 0=T Bead:=T pbc="F F F"
C      -44.81470000     -34.17910000     -67.33860000
C      -44.08410000     -34.93080000     -68.25670000
C      -43.24840000     -34.20250000     -69.15050000
C      -43.05310000     -32.80000000     -69.00840000
C      -43.71680000     -32.07730000     -67.98500000
C      -44.57350000     -32.80430000     -67.16530000
H      -45.65440000     -34.58010000     -66.78110000
H      -42.78890000     -34.80490000     -69.96110000
H      -43.67680000     -31.02700000     -67.84490000
H      -45.12620000     -32.29610000     -66.40960000
C      -41.95230000     -32.07010000     -69.83760000
H      -40.93210000     -32.28010000     -69.42170000
H      -42.06660000     -30.91380000     -69.81450000
C      -44.42390000     -36.39360000     -68.54680000
H      -43.75400000     -36.99510000     -67.89010000
H      -45.48300000     -36.64480000     -68.29830000
S      -42.20230000     -32.57860000     -71.59020000
S      -44.23630000     -36.84300000     -70.39730000
C      -43.74900000     -31.73060000     -71.83160000
H      -44.51480000     -32.03160000     -71.01650000
H      -43.55480000     -30.64640000     -71.57470000
C      -45.75980000     -36.01190000     -71.17580000
H      -46.23590000     -35.52520000     -70.41980000
H      -46.40980000     -36.75100000     -71.63910000
C      -45.41580000     -34.99460000     -72.24880000
H      -44.57460000     -34.38390000     -71.80870000
H      -44.90420000     -35.43810000     -73.16050000
C      -44.21320000     -31.94480000     -73.29460000
H      -44.02820000     -32.94770000     -73.57640000
H      -43.62030000     -31.28480000     -73.94440000
C      -45.71210000     -31.75800000     -73.44030000
C      -46.30290000     -30.60700000     -73.90840000
C      -46.63140000     -32.79030000     -73.03710000
H      -45.91760000     -29.68060000     -74.33620000
C      -47.93500000     -32.28130000     -73.25150000
C      -46.67950000     -34.16310000     -72.55270000
C      -47.94270000     -34.63150000     -72.43720000
S      -48.05550000     -30.72340000     -74.01470000
S      -49.16960000     -33.47550000     -72.95570000
H      -48.21740000     -35.60080000     -72.02860000
