40
Properties=species:S:1:pos:R:3 #=T CELL(abcABC):=T 1.889726e+02=T 90.00000=T Traj:=T positionsangstrom=T Step:=T 0=T Bead:=T pbc="F F F"
C      -48.84350000     -31.78130000     -72.27620000
C      -47.68470000     -30.98690000     -72.34720000
C      -46.64640000     -31.32790000     -73.20650000
C      -46.80610000     -32.38880000     -74.10650000
C      -47.95040000     -33.13570000     -74.11670000
C      -48.95590000     -32.87000000     -73.15750000
H      -49.54930000     -31.59980000     -71.50480000
H      -45.81410000     -30.72140000     -73.36790000
H      -48.27770000     -33.89390000     -74.89790000
H      -49.91930000     -33.44240000     -73.25370000
C      -45.69950000     -32.66120000     -75.14430000
H      -45.79720000     -31.91290000     -75.94030000
H      -45.93870000     -33.57360000     -75.64670000
C      -47.56570000     -29.78080000     -71.38660000
H      -47.18340000     -28.90390000     -71.91600000
H      -48.54900000     -29.57110000     -70.88150000
S      -43.96750000     -32.74820000     -74.63750000
S      -46.29220000     -29.94000000     -70.02770000
C      -43.90170000     -33.95130000     -73.29150000
H      -44.97730000     -34.17980000     -73.06620000
H      -43.52210000     -34.95290000     -73.65940000
C      -46.44350000     -31.72010000     -69.40680000
H      -47.44450000     -32.03770000     -69.55510000
H      -46.27130000     -31.81790000     -68.41080000
C      -45.46030000     -32.58990000     -70.15540000
H      -45.72480000     -32.74270000     -71.18640000
H      -44.53430000     -32.00960000     -70.14340000
C      -43.09280000     -33.57180000     -72.03840000
H      -43.46830000     -32.64850000     -71.53680000
H      -42.11590000     -33.32270000     -72.39320000
C      -43.05560000     -34.61460000     -70.99110000
C      -42.17290000     -35.66700000     -70.89550000
C      -44.09720000     -34.81510000     -70.03710000
H      -41.33820000     -35.82640000     -71.62270000
C      -43.90140000     -35.94910000     -69.24690000
C      -45.19100000     -33.91540000     -69.52110000
C      -45.84750000     -34.53500000     -68.49000000
S      -42.43370000     -36.85790000     -69.59490000
S      -45.25260000     -36.13570000     -68.09940000
H      -46.74230000     -34.06080000     -67.96720000
