40
Properties=species:S:1:pos:R:3 #=T CELL(abcABC):=T 1.889726e+02=T 90.00000=T Traj:=T positionsangstrom=T Step:=T 0=T Bead:=T pbc="F F F"
C      -48.73410000     -31.94110000     -72.16790000
C      -47.70060000     -30.97160000     -72.32190000
C      -46.72610000     -31.18100000     -73.33450000
C      -46.85370000     -32.30800000     -74.15130000
C      -47.89910000     -33.24840000     -73.99210000
C      -48.87390000     -33.06150000     -73.01120000
H      -49.51860000     -31.91260000     -71.36590000
H      -45.85840000     -30.54000000     -73.36600000
H      -47.76860000     -34.13040000     -74.57870000
H      -49.64450000     -33.83920000     -72.81570000
C      -45.84090000     -32.62660000     -75.20340000
H      -45.68450000     -31.74250000     -75.85790000
H      -46.02910000     -33.59340000     -75.67950000
C      -47.68750000     -29.88110000     -71.28410000
H      -47.58630000     -28.90550000     -71.73300000
H      -48.70900000     -29.85530000     -70.80630000
S      -44.06070000     -32.64870000     -74.46200000
S      -46.34690000     -29.99190000     -70.02130000
C      -44.00980000     -33.88000000     -73.14400000
H      -44.97840000     -33.83960000     -72.68190000
H      -43.91260000     -34.91480000     -73.42910000
C      -46.38590000     -31.66650000     -69.37320000
H      -47.50280000     -31.96860000     -69.37090000
H      -46.11740000     -31.67110000     -68.28450000
C      -45.42730000     -32.53570000     -70.13430000
H      -45.65690000     -32.54060000     -71.21110000
H      -44.41760000     -31.96920000     -70.09720000
C      -42.84130000     -33.62950000     -72.23040000
H      -42.79180000     -32.52190000     -71.88670000
H      -41.92880000     -33.83520000     -72.66140000
C      -42.97860000     -34.54460000     -71.02760000
C      -42.09250000     -35.65650000     -71.01050000
C      -43.93060000     -34.68110000     -69.97250000
H      -41.20800000     -35.90590000     -71.62140000
C      -43.79410000     -35.83120000     -69.20390000
C      -45.17540000     -33.93860000     -69.57980000
C      -45.95380000     -34.60710000     -68.61480000
S      -42.57520000     -36.91330000     -69.79380000
S      -45.14820000     -36.13320000     -68.14880000
H      -46.86780000     -34.21670000     -68.08250000
