40
Properties=species:S:1:pos:R:3 #=T CELL(abcABC):=T 1.889726e+02=T 90.00000=T Traj:=T positionsangstrom=T Step:=T 0=T Bead:=T pbc="F F F"
C      -48.73560000     -32.17930000     -72.00500000
C      -47.74690000     -31.17270000     -72.16210000
C      -46.80530000     -31.33470000     -73.15780000
C      -46.78170000     -32.39730000     -74.02310000
C      -47.80320000     -33.38650000     -73.89130000
C      -48.75990000     -33.26220000     -72.85650000
H      -49.47940000     -32.03960000     -71.17920000
H      -46.05710000     -30.55380000     -73.32450000
H      -47.82920000     -34.11890000     -74.64430000
H      -49.51640000     -33.94780000     -72.58730000
C      -45.74990000     -32.47060000     -75.07490000
H      -45.82890000     -31.67210000     -75.83530000
H      -45.91420000     -33.34460000     -75.70000000
C      -47.70400000     -29.89260000     -71.38660000
H      -47.52230000     -28.97900000     -71.98710000
H      -48.71980000     -29.79040000     -70.99740000
S      -44.02580000     -32.42450000     -74.41880000
S      -46.55280000     -29.86930000     -69.94620000
C      -44.15590000     -33.73690000     -73.12080000
H      -45.04790000     -33.51550000     -72.54340000
H      -44.32870000     -34.69640000     -73.66450000
C      -46.33360000     -31.67450000     -69.43310000
H      -47.28100000     -32.09430000     -69.43360000
H      -45.93960000     -31.52890000     -68.42630000
C      -45.36010000     -32.52780000     -70.30080000
H      -45.84010000     -32.62010000     -71.24430000
H      -44.44140000     -31.97930000     -70.50440000
C      -42.94810000     -33.62420000     -72.18260000
H      -42.92650000     -32.64730000     -71.68520000
H      -42.11070000     -33.70840000     -72.91450000
C      -42.97430000     -34.75290000     -71.20820000
C      -42.11500000     -35.81930000     -71.11270000
C      -44.00760000     -34.82010000     -70.18150000
H      -41.18640000     -35.96540000     -71.66030000
C      -43.90030000     -35.97770000     -69.41610000
C      -45.04240000     -33.87740000     -69.68780000
C      -45.69760000     -34.39360000     -68.59380000
S      -42.47800000     -36.99790000     -69.83080000
S      -45.17220000     -36.00280000     -68.19160000
H      -46.47680000     -33.96610000     -67.97540000
