40
Properties=species:S:1:pos:R:3 #=T CELL(abcABC):=T 1.889726e+02=T 90.00000=T Traj:=T positionsangstrom=T Step:=T 0=T Bead:=T pbc="F F F"
C      -49.45720000     -34.50510000     -71.86110000
C      -48.23520000     -34.83330000     -72.46400000
C      -47.34400000     -35.63860000     -71.81150000
C      -47.50610000     -36.04910000     -70.48660000
C      -48.74920000     -35.70230000     -69.83580000
C      -49.74220000     -34.97060000     -70.52260000
H      -50.08360000     -33.83160000     -72.42060000
H      -46.48570000     -36.02160000     -72.33710000
H      -48.96390000     -36.05370000     -68.81600000
H      -50.67860000     -34.68280000     -69.99550000
C      -46.45830000     -36.82910000     -69.73820000
H      -45.72170000     -37.19210000     -70.41600000
H      -46.90980000     -37.68050000     -69.21120000
C      -47.94770000     -34.49720000     -73.89560000
H      -47.04620000     -34.99490000     -74.31340000
H      -48.81730000     -34.72670000     -74.62990000
S      -45.77800000     -35.83310000     -68.32630000
S      -47.74830000     -32.69400000     -74.04380000
C      -44.46920000     -34.90590000     -69.02930000
H      -43.89100000     -34.60730000     -68.18880000
H      -43.80640000     -35.65760000     -69.59140000
C      -46.05040000     -32.42900000     -73.27940000
H      -45.30960000     -32.38490000     -74.15160000
H      -45.83500000     -33.41880000     -72.82770000
C      -45.94680000     -31.36820000     -72.26060000
H      -46.40330000     -30.40560000     -72.52430000
H      -46.52500000     -31.60780000     -71.33840000
C      -44.86960000     -33.67530000     -69.87240000
H      -45.58260000     -33.08610000     -69.26310000
H      -45.52810000     -34.06320000     -70.70360000
C      -43.59430000     -32.96930000     -70.26260000
C      -42.34840000     -33.34190000     -69.89040000
C      -43.50820000     -31.88560000     -71.19570000
H      -42.06360000     -34.15790000     -69.19630000
C      -42.18490000     -31.46880000     -71.44770000
C      -44.45090000     -31.04870000     -71.94420000
C      -43.80030000     -30.06700000     -72.67510000
S      -40.96820000     -32.46900000     -70.61420000
S      -41.98710000     -30.13170000     -72.55670000
H      -44.22090000     -29.27730000     -73.30540000
