40
Properties=species:S:1:pos:R:3 #=T CELL(abcABC):=T 1.889726e+02=T 90.00000=T Traj:=T positionsangstrom=T Step:=T 0=T Bead:=T pbc="F F F"
C      -49.62680000     -34.57750000     -71.57040000
C      -48.51910000     -35.08660000     -72.26960000
C      -47.44270000     -35.68900000     -71.55790000
C      -47.60400000     -35.98410000     -70.19020000
C      -48.78820000     -35.51890000     -69.53820000
C      -49.79220000     -34.86100000     -70.20660000
H      -50.40900000     -34.04800000     -72.13850000
H      -46.52970000     -36.12480000     -71.96220000
H      -48.92480000     -35.71520000     -68.53440000
H      -50.54760000     -34.39180000     -69.63200000
C      -46.50610000     -36.66110000     -69.48540000
H      -45.73550000     -37.01150000     -70.11660000
H      -46.83940000     -37.57880000     -68.92490000
C      -48.32110000     -34.70700000     -73.70580000
H      -47.59780000     -35.23460000     -74.30820000
H      -49.24890000     -34.87420000     -74.23970000
S      -45.57870000     -35.67090000     -68.24430000
S      -47.88460000     -32.89770000     -73.97330000
C      -44.10140000     -34.90020000     -69.06260000
H      -43.61580000     -34.42490000     -68.26090000
H      -43.44510000     -35.69740000     -69.32580000
C      -46.06330000     -32.67500000     -73.57080000
H      -45.64790000     -32.14640000     -74.43270000
H      -45.49470000     -33.57870000     -73.49990000
C      -45.86230000     -31.74870000     -72.35360000
H      -46.57960000     -30.95740000     -72.55330000
H      -46.23040000     -32.13360000     -71.37780000
C      -44.45880000     -34.01540000     -70.22720000
H      -45.21330000     -33.30600000     -69.87780000
H      -44.93700000     -34.59180000     -71.04120000
C      -43.29780000     -33.18730000     -70.69610000
C      -42.05810000     -33.32400000     -70.14990000
C      -43.39760000     -32.01250000     -71.60850000
H      -41.80930000     -34.06700000     -69.41040000
C      -42.17510000     -31.36200000     -71.65550000
C      -44.43610000     -31.32000000     -72.27070000
C      -43.96210000     -30.12210000     -72.79870000
S      -40.89080000     -32.09970000     -70.65680000
S      -42.23550000     -29.82560000     -72.50760000
H      -44.61230000     -29.45820000     -73.34670000
