40
Properties=species:S:1:pos:R:3 #=T CELL(abcABC):=T 1.889726e+02=T 90.00000=T Traj:=T positionsangstrom=T Step:=T 0=T Bead:=T pbc="F F F"
C      -49.66650000     -34.71600000     -71.47850000
C      -48.45850000     -34.88100000     -72.19940000
C      -47.43090000     -35.61580000     -71.56780000
C      -47.44120000     -35.74420000     -70.14990000
C      -48.63620000     -35.50780000     -69.44140000
C      -49.70030000     -34.98410000     -70.07540000
H      -50.62030000     -34.30450000     -71.87130000
H      -46.47050000     -35.95940000     -72.05950000
H      -48.58540000     -35.75780000     -68.37660000
H      -50.62520000     -34.96060000     -69.46430000
C      -46.43190000     -36.58020000     -69.40840000
H      -45.71830000     -37.13310000     -70.01340000
H      -47.04640000     -37.34180000     -68.85560000
C      -48.36600000     -34.64390000     -73.65410000
H      -47.59250000     -35.34500000     -73.99710000
H      -49.31810000     -34.94040000     -74.21120000
S      -45.53810000     -35.49700000     -68.20230000
S      -47.92760000     -32.87060000     -74.01810000
C      -44.07030000     -35.11940000     -69.24250000
H      -43.24770000     -34.64250000     -68.71380000
H      -43.66780000     -36.12520000     -69.66970000
C      -46.15830000     -32.83320000     -73.60740000
H      -45.66050000     -32.43170000     -74.49150000
H      -45.92190000     -33.86510000     -73.39170000
C      -45.95600000     -31.94530000     -72.37930000
H      -46.64540000     -31.09610000     -72.32820000
H      -46.19610000     -32.60540000     -71.55250000
C      -44.35220000     -34.16990000     -70.35240000
H      -45.25700000     -33.52960000     -70.04760000
H      -44.82770000     -34.64780000     -71.20670000
C      -43.17260000     -33.22640000     -70.72430000
C      -41.85260000     -33.37630000     -70.31730000
C      -43.40340000     -31.96500000     -71.44350000
H      -41.42720000     -34.14780000     -69.63950000
C      -42.24630000     -31.26250000     -71.54490000
C      -44.52880000     -31.42610000     -72.18650000
C      -44.11170000     -30.24760000     -72.81520000
S      -40.83680000     -31.99440000     -70.77310000
S      -42.44190000     -29.84700000     -72.50020000
H      -44.77740000     -29.70450000     -73.46880000
