40
Properties=species:S:1:pos:R:3 #=T CELL(abcABC):=T 1.889726e+02=T 90.00000=T Traj:=T positionsangstrom=T Step:=T 0=T Bead:=T pbc="F F F"
C      -49.59620000     -34.45480000     -71.32710000
C      -48.48440000     -34.93990000     -72.09400000
C      -47.47920000     -35.61310000     -71.43910000
C      -47.58810000     -35.85600000     -70.07220000
C      -48.74470000     -35.54550000     -69.33850000
C      -49.74830000     -34.88520000     -70.02730000
H      -50.25400000     -33.83280000     -71.89740000
H      -46.69750000     -36.14390000     -71.86330000
H      -48.89300000     -35.85620000     -68.27710000
H      -50.74920000     -34.69950000     -69.54260000
C      -46.45740000     -36.52640000     -69.34470000
H      -45.78720000     -37.04150000     -70.09800000
H      -46.83170000     -37.33800000     -68.72950000
C      -48.40830000     -34.71590000     -73.59290000
H      -47.64820000     -35.42810000     -73.94030000
H      -49.33000000     -34.82030000     -74.10580000
S      -45.38060000     -35.56310000     -68.16970000
S      -48.04200000     -33.03380000     -74.07220000
C      -43.85220000     -34.96750000     -69.01230000
H      -43.40140000     -34.30170000     -68.31350000
H      -43.21710000     -35.79500000     -69.12960000
C      -46.26430000     -32.80090000     -73.53870000
H      -45.79330000     -32.26070000     -74.40100000
H      -45.75500000     -33.82350000     -73.48480000
C      -45.98950000     -32.02080000     -72.27040000
H      -46.75780000     -31.23800000     -72.30900000
H      -46.14460000     -32.69030000     -71.42070000
C      -44.11670000     -34.27940000     -70.31910000
H      -45.13680000     -33.89150000     -70.22580000
H      -44.14440000     -35.09800000     -71.07660000
C      -43.10560000     -33.21040000     -70.73070000
C      -41.77910000     -33.25790000     -70.35640000
C      -43.42800000     -32.03850000     -71.58030000
H      -41.37550000     -34.16140000     -69.85340000
C      -42.27870000     -31.27270000     -71.73130000
C      -44.61930000     -31.43360000     -72.24930000
C      -44.19720000     -30.23170000     -72.90970000
S      -40.77700000     -31.90610000     -70.95150000
S      -42.51140000     -29.79760000     -72.58650000
H      -44.92340000     -29.52200000     -73.37970000
