40
Properties=species:S:1:pos:R:3 #=T CELL(abcABC):=T 1.889726e+02=T 90.00000=T Traj:=T positionsangstrom=T Step:=T 0=T Bead:=T pbc="F F F"
C      -49.40380000     -34.28160000     -71.15080000
C      -48.49610000     -34.96330000     -71.99990000
C      -47.36420000     -35.63130000     -71.49100000
C      -47.26100000     -35.81970000     -70.09110000
C      -48.18340000     -35.16380000     -69.25480000
C      -49.18940000     -34.25290000     -69.77220000
H      -50.13210000     -33.70000000     -71.65930000
H      -46.83210000     -36.28130000     -72.25820000
H      -48.13380000     -35.32140000     -68.14620000
H      -49.89290000     -33.67310000     -69.20980000
C      -46.07860000     -36.55510000     -69.43980000
H      -45.31520000     -36.74660000     -70.14510000
H      -46.48380000     -37.48430000     -68.95990000
C      -48.66130000     -34.80850000     -73.50540000
H      -48.07080000     -35.58830000     -73.91280000
H      -49.72470000     -34.89260000     -73.79120000
S      -45.23210000     -35.59350000     -67.98760000
S      -47.98080000     -33.18580000     -74.08890000
C      -43.77050000     -34.71020000     -68.83150000
H      -43.41280000     -33.92270000     -68.26190000
H      -42.95270000     -35.40090000     -69.08740000
C      -46.26920000     -33.13970000     -73.37050000
H      -45.55610000     -32.91240000     -74.17060000
H      -46.19470000     -34.15950000     -72.92370000
C      -46.11100000     -31.98490000     -72.31620000
H      -46.80380000     -31.17490000     -72.57350000
H      -46.36590000     -32.41430000     -71.34710000
C      -44.31110000     -34.15250000     -70.22570000
H      -45.32900000     -33.79800000     -70.10390000
H      -44.50960000     -35.02650000     -70.80070000
C      -43.32990000     -33.21780000     -70.78000000
C      -41.98350000     -33.34680000     -70.53540000
C      -43.59400000     -31.97230000     -71.50630000
H      -41.45610000     -33.98200000     -69.85520000
C      -42.41330000     -31.26860000     -71.80270000
C      -44.74210000     -31.49150000     -72.24690000
C      -44.38070000     -30.42000000     -73.03990000
S      -40.99090000     -32.05990000     -71.14370000
S      -42.75050000     -29.83720000     -72.81000000
H      -45.01130000     -29.86910000     -73.71920000
