40
Properties=species:S:1:pos:R:3 #=T CELL(abcABC):=T 1.889726e+02=T 90.00000=T Traj:=T positionsangstrom=T Step:=T 0=T Bead:=T pbc="F F F"
C      -49.00410000     -33.80020000     -70.98980000
C      -48.35500000     -34.80240000     -71.77980000
C      -47.62160000     -35.84870000     -71.21520000
C      -47.29540000     -35.68580000     -69.86990000
C      -47.98370000     -34.74980000     -69.06580000
C      -48.87540000     -33.88580000     -69.58460000
H      -49.62250000     -33.06730000     -71.56880000
H      -47.11990000     -36.58000000     -71.80980000
H      -47.73150000     -34.85050000     -67.94700000
H      -49.31220000     -33.17140000     -68.84230000
C      -46.31240000     -36.71480000     -69.26690000
H      -45.79980000     -37.29070000     -70.11100000
H      -46.84390000     -37.49870000     -68.75990000
C      -48.60910000     -34.82940000     -73.21760000
H      -48.32050000     -35.75780000     -73.71340000
H      -49.64040000     -34.77990000     -73.46190000
S      -45.08110000     -36.06010000     -68.14530000
S      -47.87740000     -33.41480000     -74.09680000
C      -43.89380000     -34.98660000     -69.16370000
H      -43.18410000     -34.52720000     -68.47060000
H      -43.33490000     -35.56680000     -69.81040000
C      -46.13060000     -33.04130000     -73.56930000
H      -45.58550000     -32.62090000     -74.45070000
H      -45.62550000     -33.93010000     -73.20290000
C      -46.16210000     -32.00360000     -72.40790000
H      -46.92200000     -31.26350000     -72.49860000
H      -46.47130000     -32.52580000     -71.50200000
C      -44.54620000     -33.88070000     -70.04980000
H      -45.14100000     -33.26660000     -69.40980000
H      -45.21980000     -34.34770000     -70.79240000
C      -43.43080000     -33.10350000     -70.71200000
C      -42.11360000     -33.23640000     -70.49260000
C      -43.72830000     -31.99020000     -71.60970000
H      -41.65970000     -34.11510000     -70.01900000
C      -42.52600000     -31.28800000     -71.95010000
C      -44.82660000     -31.32720000     -72.24950000
C      -44.45110000     -30.27870000     -73.06340000
S      -41.09210000     -32.04220000     -71.30580000
S      -42.76620000     -29.85440000     -72.92580000
H      -45.17680000     -29.65830000     -73.58040000
