40
Properties=species:S:1:pos:R:3 #=T CELL(abcABC):=T 1.889726e+02=T 90.00000=T Traj:=T positionsangstrom=T Step:=T 0=T Bead:=T pbc="F F F"
C      -48.86140000     -33.67320000     -71.02240000
C      -48.26680000     -34.79390000     -71.69650000
C      -47.41210000     -35.68380000     -71.04120000
C      -47.29560000     -35.56400000     -69.66780000
C      -47.89980000     -34.44730000     -68.95140000
C      -48.54860000     -33.42690000     -69.67170000
H      -49.45730000     -32.94570000     -71.62950000
H      -46.87830000     -36.43400000     -71.57390000
H      -47.61940000     -34.37900000     -67.90580000
H      -49.04410000     -32.57130000     -69.10820000
C      -46.42060000     -36.62140000     -68.92390000
H      -46.19950000     -37.43090000     -69.68990000
H      -46.92360000     -37.11670000     -68.16160000
C      -48.41350000     -34.91090000     -73.16710000
H      -47.79870000     -35.78270000     -73.46880000
H      -49.43540000     -35.13340000     -73.44970000
S      -44.81260000     -36.03490000     -68.17410000
S      -48.01270000     -33.38040000     -74.08690000
C      -44.12290000     -35.51940000     -69.79070000
H      -43.03610000     -35.70740000     -69.73090000
H      -44.51060000     -36.22180000     -70.49230000
C      -46.30310000     -32.99410000     -73.49070000
H      -45.83900000     -32.44240000     -74.35780000
H      -45.75100000     -33.92030000     -73.30000000
C      -46.28840000     -32.10700000     -72.20170000
H      -47.06150000     -31.32480000     -72.34320000
H      -46.52150000     -32.77630000     -71.44520000
C      -44.43900000     -34.10420000     -70.26800000
H      -44.89690000     -33.57750000     -69.37000000
H      -45.31460000     -34.22250000     -71.00280000
C      -43.38140000     -33.24700000     -70.82770000
C      -42.08720000     -33.20390000     -70.42820000
C      -43.68670000     -32.08860000     -71.66730000
H      -41.64640000     -33.84110000     -69.64970000
C      -42.58550000     -31.35380000     -72.10400000
C      -44.89620000     -31.43930000     -72.19260000
C      -44.67960000     -30.24580000     -72.79520000
S      -41.10610000     -32.05590000     -71.32680000
S      -42.96760000     -29.88970000     -73.01920000
H      -45.46300000     -29.66900000     -73.19880000
