40
Properties=species:S:1:pos:R:3 #=T CELL(abcABC):=T 1.889726e+02=T 90.00000=T Traj:=T positionsangstrom=T Step:=T 0=T Bead:=T pbc="F F F"
C      -45.00260000     -34.08230000     -67.62600000
C      -44.16560000     -34.83900000     -68.51390000
C      -43.11520000     -34.17450000     -69.16240000
C      -42.97880000     -32.80830000     -69.07560000
C      -43.84360000     -32.08880000     -68.27940000
C      -44.86680000     -32.68570000     -67.59650000
H      -45.86730000     -34.52430000     -67.01510000
H      -42.48560000     -34.80120000     -69.76010000
H      -43.68180000     -30.98700000     -68.22730000
H      -45.59900000     -32.07460000     -67.04120000
C      -41.91430000     -31.98760000     -69.82540000
H      -40.93400000     -32.48950000     -69.53950000
H      -41.86470000     -30.97960000     -69.38810000
C      -44.45600000     -36.31010000     -68.59650000
H      -43.85620000     -37.01440000     -67.97220000
H      -45.49450000     -36.52650000     -68.29340000
S      -42.00680000     -32.11140000     -71.61430000
S      -44.18250000     -36.84760000     -70.33800000
C      -43.67550000     -31.53870000     -71.96540000
H      -44.32650000     -31.73520000     -71.11460000
H      -43.59610000     -30.44020000     -72.20460000
C      -45.70170000     -36.18190000     -71.18120000
H      -46.45040000     -35.80400000     -70.42510000
H      -46.16040000     -36.95640000     -71.78220000
C      -45.44260000     -35.04020000     -72.19970000
H      -44.64710000     -34.36810000     -71.84060000
H      -45.02890000     -35.44540000     -73.13360000
C      -44.21720000     -32.18240000     -73.24010000
H      -43.86330000     -33.26150000     -73.28260000
H      -43.77350000     -31.69160000     -74.14110000
C      -45.70560000     -32.03810000     -73.36940000
C      -46.24060000     -30.86950000     -73.87300000
C      -46.75070000     -32.87930000     -72.82570000
H      -45.69610000     -30.01330000     -74.25130000
C      -48.00100000     -32.37380000     -73.12890000
C      -46.73050000     -34.27660000     -72.36580000
C      -48.01060000     -34.77090000     -72.38960000
S      -47.96860000     -30.76460000     -73.79920000
S      -49.26940000     -33.58060000     -72.87240000
H      -48.37910000     -35.76520000     -72.22680000
