40
Properties=species:S:1:pos:R:3 #=T CELL(abcABC):=T 1.889726e+02=T 90.00000=T Traj:=T positionsangstrom=T Step:=T 0=T Bead:=T pbc="F F F"
C      -49.03020000     -32.53850000     -72.11710000
C      -48.23380000     -31.44910000     -71.87510000
C      -47.19690000     -31.13360000     -72.69070000
C      -46.77700000     -32.09640000     -73.67440000
C      -47.51010000     -33.25820000     -73.89140000
C      -48.70670000     -33.47770000     -73.11540000
H      -49.72300000     -32.79690000     -71.33470000
H      -46.62900000     -30.18940000     -72.53790000
H      -47.17270000     -33.90030000     -74.67890000
H      -49.36330000     -34.23020000     -73.34910000
C      -45.66560000     -31.67900000     -74.59830000
H      -45.96220000     -30.73200000     -74.98570000
H      -45.42090000     -32.42990000     -75.34390000
C      -48.51040000     -30.55530000     -70.66920000
H      -48.89010000     -29.59320000     -71.01580000
H      -49.25190000     -30.89900000     -69.95760000
S      -44.03250000     -31.40790000     -73.64970000
S      -46.90300000     -30.39270000     -69.69240000
C      -43.81880000     -33.18650000     -73.35030000
H      -44.76870000     -33.50560000     -73.00090000
H      -43.61110000     -33.71250000     -74.23140000
C      -46.46250000     -32.19950000     -69.38990000
H      -47.14660000     -32.74640000     -69.98100000
H      -46.59350000     -32.32790000     -68.30940000
C      -45.02770000     -32.57230000     -69.92980000
H      -44.92090000     -32.16570000     -70.86880000
H      -44.21470000     -32.16230000     -69.23540000
C      -42.75130000     -33.28820000     -72.17580000
H      -42.89080000     -32.42560000     -71.49870000
H      -41.81070000     -33.13890000     -72.71600000
C      -42.79300000     -34.55860000     -71.37450000
C      -41.86370000     -35.62200000     -71.50730000
C      -43.82400000     -34.80300000     -70.43000000
H      -40.86730000     -35.60320000     -72.01260000
C      -43.74950000     -36.08340000     -69.88020000
C      -44.89310000     -34.06630000     -69.84710000
C      -45.67950000     -34.81260000     -68.95940000
S      -42.32040000     -36.99590000     -70.46380000
S      -45.04420000     -36.47510000     -68.79070000
H      -46.46150000     -34.38630000     -68.39400000
