40
Properties=species:S:1:pos:R:3 #=T CELL(abcABC):=T 1.889726e+02=T 90.00000=T Traj:=T positionsangstrom=T Step:=T 0=T Bead:=T pbc="F F F"
C      -45.92350000     -37.40580000     -71.63930000
C      -45.65740000     -36.02090000     -71.62190000
C      -46.16380000     -35.07010000     -70.72690000
C      -47.12190000     -35.54370000     -69.77900000
C      -47.47060000     -36.90330000     -69.85200000
C      -46.86450000     -37.84430000     -70.69790000
H      -45.50660000     -38.02260000     -72.42590000
H      -45.84320000     -34.10260000     -70.90890000
H      -48.08580000     -37.27520000     -69.02590000
H      -47.11610000     -38.89050000     -70.63960000
C      -47.62270000     -34.65910000     -68.68420000
H      -47.03080000     -34.96860000     -67.76790000
H      -48.69100000     -34.93520000     -68.40490000
C      -44.87760000     -35.58160000     -72.81400000
H      -44.86590000     -36.37440000     -73.58090000
H      -45.31400000     -34.64070000     -73.27540000
S      -47.44630000     -32.84120000     -68.84810000
S      -43.00200000     -35.28190000     -72.51610000
C      -45.66900000     -32.49620000     -68.44020000
H      -45.53120000     -32.39360000     -67.31730000
H      -44.98170000     -33.23180000     -68.78040000
C      -42.90620000     -34.53010000     -70.81360000
H      -42.16920000     -34.92670000     -70.12620000
H      -43.80660000     -34.84620000     -70.44360000
C      -42.62180000     -33.00230000     -70.80020000
H      -42.93770000     -32.67170000     -69.80210000
H      -41.55090000     -32.95910000     -70.86860000
C      -45.09740000     -31.21680000     -69.05950000
H      -44.02740000     -31.32940000     -68.91780000
H      -45.36210000     -30.24020000     -68.54170000
C      -45.43850000     -31.05460000     -70.55400000
C      -46.58990000     -30.51810000     -71.01700000
C      -44.61280000     -31.63760000     -71.68760000
H      -47.33060000     -30.03760000     -70.45210000
C      -45.11480000     -31.22230000     -72.92910000
C      -43.30680000     -32.22000000     -71.86140000
C      -42.90020000     -32.28800000     -73.18960000
S      -46.66000000     -30.32670000     -72.82030000
S      -44.06700000     -31.52720000     -74.29490000
H      -41.94420000     -32.51770000     -73.60660000
