40
Properties=species:S:1:pos:R:3 #=T CELL(abcABC):=T 1.889726e+02=T 90.00000=T Traj:=T positionsangstrom=T Step:=T 0=T Bead:=T pbc="F F F"
C      -48.60560000     -32.64200000     -72.19490000
C      -47.87790000     -31.46180000     -71.85000000
C      -46.96180000     -30.96960000     -72.71100000
C      -46.71320000     -31.62130000     -73.96470000
C      -47.45940000     -32.78090000     -74.31100000
C      -48.31510000     -33.30990000     -73.35800000
H      -49.27890000     -33.01130000     -71.40390000
H      -46.34790000     -30.12790000     -72.45780000
H      -47.28010000     -33.22060000     -75.27080000
H      -48.78530000     -34.20560000     -73.62440000
C      -45.64630000     -31.08790000     -74.81720000
H      -45.68060000     -30.01400000     -75.13990000
H      -45.64110000     -31.54510000     -75.78940000
C      -48.16180000     -30.68430000     -70.64540000
H      -48.36260000     -29.63070000     -70.97440000
H      -49.06340000     -30.99450000     -70.05740000
S      -43.92080000     -31.42370000     -74.09180000
S      -46.59150000     -30.39130000     -69.62710000
C      -44.03790000     -33.12050000     -73.32020000
H      -45.09070000     -33.27150000     -73.08530000
H      -43.69170000     -33.93440000     -73.96240000
C      -45.66450000     -31.93570000     -69.09020000
H      -45.78600000     -32.16660000     -68.06830000
H      -44.63510000     -31.60090000     -69.21200000
C      -46.11790000     -33.16110000     -69.93970000
H      -47.23380000     -33.32350000     -69.72790000
H      -46.04010000     -32.94650000     -71.04910000
C      -43.16170000     -33.10700000     -72.05080000
H      -43.44870000     -32.38010000     -71.32430000
H      -42.08260000     -33.11750000     -72.34450000
C      -43.31270000     -34.44990000     -71.32900000
C      -42.32640000     -35.40200000     -71.48530000
C      -44.21280000     -34.95970000     -70.23300000
H      -41.51010000     -35.27150000     -72.22060000
C      -43.86390000     -36.23350000     -69.77810000
C      -45.44430000     -34.51920000     -69.57900000
C      -45.87430000     -35.39190000     -68.60770000
S      -42.40460000     -36.88120000     -70.43810000
S      -44.87840000     -36.80990000     -68.50820000
H      -46.74150000     -35.17990000     -68.06870000
