40
Properties=species:S:1:pos:R:3 #=T CELL(abcABC):=T 1.889726e+02=T 90.00000=T Traj:=T positionsangstrom=T Step:=T 0=T Bead:=T pbc="F F F"
C      -46.69680000     -32.23700000     -72.58930000
C      -45.66850000     -31.27870000     -72.19810000
C      -44.34550000     -31.49470000     -72.70270000
C      -43.99230000     -32.70270000     -73.34300000
C      -44.99110000     -33.65450000     -73.62490000
C      -46.33650000     -33.34210000     -73.34030000
H      -47.69610000     -32.08080000     -72.17620000
H      -43.54670000     -30.79160000     -72.32650000
H      -44.81670000     -34.65380000     -74.13700000
H      -47.04250000     -34.16040000     -73.36720000
C      -42.62380000     -33.10680000     -73.73930000
H      -42.24070000     -32.20540000     -74.30960000
H      -42.60470000     -34.15090000     -74.11090000
C      -46.03980000     -30.03960000     -71.50060000
H      -45.14200000     -29.57930000     -71.08740000
H      -46.49340000     -29.24550000     -72.10080000
S      -41.45290000     -33.11360000     -72.30010000
S      -47.15110000     -30.41580000     -69.99950000
C      -41.85910000     -34.53430000     -71.20330000
H      -42.07610000     -35.34690000     -71.86420000
H      -41.01010000     -34.65250000     -70.62300000
C      -46.06360000     -31.05660000     -68.66230000
H      -46.70900000     -31.23180000     -67.82770000
H      -45.33430000     -30.23180000     -68.38520000
C      -45.24140000     -32.32800000     -69.02550000
H      -44.49900000     -32.18190000     -69.84860000
H      -44.66560000     -32.61360000     -68.16880000
C      -43.08110000     -34.35820000     -70.27390000
H      -43.36330000     -33.28360000     -70.15010000
H      -42.89520000     -34.79090000     -69.26470000
C      -44.34860000     -35.05710000     -70.77930000
C      -44.52020000     -36.06520000     -71.70020000
C      -45.64750000     -34.60790000     -70.30840000
H      -43.68170000     -36.72250000     -72.09180000
C      -46.67760000     -35.32950000     -70.88920000
C      -46.17390000     -33.42260000     -69.61500000
C      -47.49470000     -33.40120000     -69.56450000
S      -46.18820000     -36.70250000     -71.82580000
S      -48.26010000     -34.68840000     -70.51830000
H      -48.10180000     -32.61130000     -69.10910000
