40
Properties=species:S:1:pos:R:3 #=T CELL(abcABC):=T 1.889726e+02=T 90.00000=T Traj:=T positionsangstrom=T Step:=T 0=T Bead:=T pbc="F F F"
C      -46.78610000     -32.15510000     -72.63080000
C      -45.76460000     -31.31220000     -72.14090000
C      -44.43740000     -31.64030000     -72.35480000
C      -44.08070000     -32.66530000     -73.26280000
C      -45.10080000     -33.48070000     -73.79560000
C      -46.39610000     -33.20680000     -73.45370000
H      -47.84620000     -31.83330000     -72.38380000
H      -43.72940000     -30.94120000     -71.97740000
H      -44.85440000     -34.22810000     -74.51960000
H      -47.17730000     -33.72630000     -73.94940000
C      -42.54740000     -32.93300000     -73.50550000
H      -42.05070000     -32.33370000     -74.23860000
H      -42.42760000     -33.88760000     -74.02160000
C      -45.95520000     -30.05610000     -71.28150000
H      -44.93420000     -29.64500000     -71.02480000
H      -46.45490000     -29.23110000     -71.88060000
S      -41.43030000     -32.89900000     -72.04790000
S      -46.89870000     -30.20980000     -69.73670000
C      -41.84090000     -34.60770000     -71.39740000
H      -41.94290000     -35.27910000     -72.32310000
H      -40.94190000     -34.95610000     -70.77000000
C      -45.92200000     -31.21580000     -68.55570000
H      -46.53540000     -31.52590000     -67.68260000
H      -45.14970000     -30.56950000     -68.21040000
C      -45.29830000     -32.48370000     -69.11700000
H      -44.52700000     -32.11280000     -69.90970000
H      -44.64800000     -32.92370000     -68.33270000
C      -43.00590000     -34.69910000     -70.38040000
H      -43.11660000     -33.62880000     -69.98690000
H      -42.58280000     -35.32000000     -69.62080000
C      -44.37480000     -35.08560000     -70.98200000
C      -44.53530000     -36.15520000     -71.80680000
C      -45.69230000     -34.59590000     -70.59010000
H      -43.72070000     -36.75230000     -72.24580000
C      -46.73420000     -35.31710000     -71.10130000
C      -46.26730000     -33.54180000     -69.72760000
C      -47.57200000     -33.58360000     -69.53040000
S      -46.24390000     -36.58130000     -72.19280000
S      -48.32750000     -34.91820000     -70.42940000
H      -48.04630000     -33.00430000     -68.79700000
