40
Properties=species:S:1:pos:R:3 #=T CELL(abcABC):=T 1.889726e+02=T 90.00000=T Traj:=T positionsangstrom=T Step:=T 0=T Bead:=T pbc="F F F"
C      -45.72590000     -37.45610000     -70.79450000
C      -45.68910000     -36.24140000     -71.46760000
C      -46.43360000     -35.15500000     -70.99160000
C      -47.39290000     -35.33510000     -69.99060000
C      -47.45680000     -36.56470000     -69.33540000
C      -46.69860000     -37.60920000     -69.80150000
H      -45.07520000     -38.23670000     -71.19460000
H      -46.42290000     -34.17460000     -71.43650000
H      -48.25290000     -36.85980000     -68.67620000
H      -46.98580000     -38.60470000     -69.52020000
C      -48.25290000     -34.21120000     -69.43010000
H      -48.34710000     -34.30280000     -68.33350000
H      -49.29190000     -34.28860000     -69.88360000
C      -44.66470000     -36.04500000     -72.55640000
H      -44.67840000     -36.92000000     -73.28210000
H      -44.97410000     -35.12900000     -73.09970000
S      -47.58870000     -32.55300000     -69.77390000
S      -42.95680000     -35.94550000     -71.87850000
C      -45.95800000     -32.44650000     -68.87010000
H      -46.06770000     -32.54050000     -67.78180000
H      -45.31500000     -33.27330000     -69.23390000
C      -43.06450000     -34.71760000     -70.42980000
H      -42.31610000     -35.10790000     -69.78090000
H      -44.03100000     -34.95720000     -69.94030000
C      -42.80790000     -33.27460000     -70.75920000
H      -42.85980000     -32.73860000     -69.76890000
H      -41.72690000     -33.28530000     -71.07240000
C      -45.24950000     -31.08060000     -69.19410000
H      -44.25640000     -31.22560000     -68.76790000
H      -45.83740000     -30.28120000     -68.82510000
C      -45.24700000     -30.75940000     -70.67610000
C      -46.00270000     -29.77910000     -71.15820000
C      -44.53000000     -31.47290000     -71.74970000
H      -46.35020000     -28.93840000     -70.57920000
C      -44.89100000     -31.05450000     -72.99100000
C      -43.54500000     -32.61050000     -71.82310000
C      -43.18620000     -32.89350000     -73.10300000
S      -46.02580000     -29.70170000     -72.90150000
S      -44.19030000     -31.96500000     -74.32300000
H      -42.48930000     -33.56060000     -73.52470000
