40
Properties=species:S:1:pos:R:3 #=T CELL(abcABC):=T 1.889726e+02=T 90.00000=T Traj:=T positionsangstrom=T Step:=T 0=T Bead:=T pbc="F F F"
C      -45.69880000     -37.21320000     -70.51870000
C      -45.86740000     -36.09950000     -71.30740000
C      -46.72140000     -35.02460000     -70.86760000
C      -47.51070000     -35.23570000     -69.74110000
C      -47.28100000     -36.32250000     -68.95460000
C      -46.30990000     -37.21040000     -69.30410000
H      -44.97570000     -38.01140000     -70.77950000
H      -46.82770000     -34.08920000     -71.40050000
H      -47.87200000     -36.65410000     -68.11650000
H      -46.13200000     -38.04810000     -68.64660000
C      -48.46020000     -34.15520000     -69.34000000
H      -48.72680000     -34.32090000     -68.28460000
H      -49.39110000     -34.31010000     -69.84240000
C      -44.89110000     -35.91170000     -72.43990000
H      -44.83190000     -36.79790000     -73.02970000
H      -45.05860000     -34.95940000     -72.99030000
S      -47.89790000     -32.48310000     -69.59580000
S      -43.11340000     -35.90170000     -71.92990000
C      -46.07060000     -32.56650000     -69.07130000
H      -45.99790000     -32.74160000     -67.98610000
H      -45.58920000     -33.40720000     -69.50040000
C      -43.13360000     -34.77540000     -70.44920000
H      -42.24640000     -35.18450000     -69.87940000
H      -44.05840000     -34.88050000     -69.91210000
C      -42.73830000     -33.25840000     -70.68560000
H      -42.93270000     -32.77130000     -69.76940000
H      -41.66910000     -33.07590000     -70.84480000
C      -45.34490000     -31.27330000     -69.41400000
H      -44.29720000     -31.38610000     -69.03320000
H      -45.73350000     -30.44420000     -68.81630000
C      -45.29920000     -30.99520000     -70.90100000
C      -46.02570000     -29.99180000     -71.47890000
C      -44.47140000     -31.63720000     -71.87200000
H      -46.84770000     -29.42300000     -71.02320000
C      -44.79290000     -31.21650000     -73.20220000
C      -43.37590000     -32.60200000     -71.86120000
C      -42.90880000     -32.88200000     -73.14960000
S      -45.90440000     -29.92370000     -73.21830000
S      -43.80680000     -31.99210000     -74.39110000
H      -42.08040000     -33.61470000     -73.34650000
