40
Properties=species:S:1:pos:R:3 #=T CELL(abcABC):=T 1.889726e+02=T 90.00000=T Traj:=T positionsangstrom=T Step:=T 0=T Bead:=T pbc="F F F"
C      -45.74150000     -37.24720000     -72.84320000
C      -46.73190000     -36.34230000     -72.52630000
C      -46.96110000     -35.22250000     -73.34640000
C      -46.08440000     -34.96400000     -74.42900000
C      -45.15190000     -35.95520000     -74.79390000
C      -44.95890000     -37.07210000     -73.98950000
H      -45.71890000     -38.14590000     -72.25430000
H      -47.82840000     -34.68440000     -73.16330000
H      -44.58600000     -35.88650000     -75.73140000
H      -44.36530000     -37.84840000     -74.41750000
C      -46.26940000     -33.87710000     -75.47290000
H      -47.14230000     -34.10770000     -76.14020000
H      -45.39260000     -33.99120000     -76.20000000
C      -47.55750000     -36.71900000     -71.32890000
H      -48.58230000     -37.08800000     -71.75950000
H      -47.06630000     -37.47420000     -70.81390000
S      -46.30090000     -32.12010000     -74.75060000
S      -47.97640000     -35.35610000     -70.07970000
C      -45.08390000     -32.25450000     -73.36340000
H      -44.82640000     -33.33910000     -73.10720000
H      -44.24430000     -31.57910000     -73.61480000
C      -46.30650000     -34.57950000     -69.80740000
H      -45.90730000     -34.33950000     -70.79780000
H      -45.65150000     -35.20740000     -69.18320000
C      -46.56800000     -33.25830000     -69.12550000
H      -47.16460000     -32.77620000     -69.85780000
H      -47.25090000     -33.28980000     -68.30610000
C      -45.63370000     -31.61100000     -71.96320000
H      -46.34430000     -32.24720000     -71.47950000
H      -46.07900000     -30.60510000     -72.13470000
C      -44.47230000     -31.38420000     -71.01290000
C      -43.38890000     -30.59760000     -71.31760000
C      -44.36850000     -31.94510000     -69.68180000
H      -43.35340000     -30.07240000     -72.31820000
C      -43.19270000     -31.46380000     -69.02840000
C      -45.27990000     -32.62440000     -68.72840000
C      -44.76940000     -32.66880000     -67.45150000
S      -42.26220000     -30.40250000     -70.03230000
S      -43.21640000     -31.83620000     -67.32000000
H      -45.22910000     -33.20380000     -66.59340000
