40
Properties=species:S:1:pos:R:3 #=T CELL(abcABC):=T 1.889726e+02=T 90.00000=T Traj:=T positionsangstrom=T Step:=T 0=T Bead:=T pbc="F F F"
C      -46.01360000     -37.08440000     -70.82850000
C      -46.01550000     -35.84000000     -71.33140000
C      -46.77990000     -34.84400000     -70.69500000
C      -47.56690000     -35.18750000     -69.58630000
C      -47.55630000     -36.47530000     -69.06060000
C      -46.83790000     -37.44490000     -69.75450000
H      -45.27060000     -37.79310000     -71.19310000
H      -46.86680000     -33.96310000     -71.23480000
H      -48.18420000     -36.83310000     -68.28950000
H      -46.96070000     -38.52760000     -69.49110000
C      -48.13060000     -34.18860000     -68.63410000
H      -47.76310000     -34.51930000     -67.64570000
H      -49.24600000     -34.23070000     -68.53570000
C      -45.06410000     -35.57190000     -72.46550000
H      -45.21170000     -36.38540000     -73.17480000
H      -45.04370000     -34.57250000     -72.86840000
S      -47.76320000     -32.38940000     -68.96550000
S      -43.28710000     -35.74200000     -71.88370000
C      -45.89100000     -32.34740000     -68.83310000
H      -45.59490000     -32.22480000     -67.82200000
H      -45.54280000     -33.22090000     -69.30150000
C      -43.07140000     -34.58850000     -70.36320000
H      -42.26000000     -35.01280000     -69.71920000
H      -44.06200000     -34.53290000     -69.83000000
C      -42.55590000     -33.20750000     -70.71120000
H      -42.72870000     -32.52690000     -69.89790000
H      -41.48690000     -33.22020000     -70.85980000
C      -45.24370000     -31.16650000     -69.56380000
H      -44.19080000     -31.17650000     -69.28500000
H      -45.67550000     -30.22650000     -69.11790000
C      -45.25700000     -31.09830000     -71.05940000
C      -46.30640000     -30.37210000     -71.74610000
C      -44.27670000     -31.61950000     -72.03940000
H      -47.09050000     -29.77270000     -71.21250000
C      -44.63600000     -31.38220000     -73.37610000
C      -43.15820000     -32.51670000     -72.01200000
C      -42.52010000     -32.76510000     -73.22840000
S      -46.11880000     -30.42550000     -73.49060000
S      -43.57590000     -32.05900000     -74.53240000
H      -41.62110000     -33.34360000     -73.38710000
