40
Properties=species:S:1:pos:R:3 #=T CELL(abcABC):=T 1.889726e+02=T 90.00000=T Traj:=T positionsangstrom=T Step:=T 0=T Bead:=T pbc="F F F"
C      -46.17720000     -37.45310000     -70.76860000
C      -45.69200000     -36.17030000     -71.16680000
C      -46.31190000     -34.99960000     -70.68270000
C      -47.37730000     -35.10840000     -69.80870000
C      -47.73020000     -36.35340000     -69.32810000
C      -47.14360000     -37.51360000     -69.81230000
H      -45.73420000     -38.34390000     -71.28570000
H      -46.02160000     -34.07500000     -71.03240000
H      -48.36560000     -36.41020000     -68.47710000
H      -47.57130000     -38.46500000     -69.48740000
C      -48.13020000     -33.95900000     -69.20260000
H      -47.99410000     -33.93860000     -68.15500000
H      -49.20510000     -34.02530000     -69.40640000
C      -44.53630000     -36.01950000     -72.11920000
H      -44.32780000     -36.85670000     -72.85040000
H      -44.77150000     -35.23950000     -72.83250000
S      -47.60000000     -32.21450000     -69.80710000
S      -42.82600000     -35.77030000     -71.38100000
C      -45.98680000     -31.96350000     -68.91270000
H      -46.21150000     -31.79710000     -67.79830000
H      -45.50590000     -32.85730000     -68.97330000
C      -42.92880000     -34.41430000     -70.09290000
H      -42.29300000     -34.61780000     -69.20450000
H      -43.96010000     -34.37510000     -69.69370000
C      -42.59810000     -33.02470000     -70.59640000
H      -42.61060000     -32.30120000     -69.79790000
H      -41.58490000     -33.02290000     -70.89220000
C      -45.17600000     -30.87980000     -69.51750000
H      -44.17200000     -31.06680000     -69.11580000
H      -45.50200000     -29.86110000     -69.18470000
C      -45.27590000     -30.88030000     -71.04720000
C      -46.16770000     -30.06540000     -71.66130000
C      -44.43700000     -31.61360000     -71.95970000
H      -46.77820000     -29.43770000     -71.18090000
C      -44.94290000     -31.47430000     -73.29050000
C      -43.35160000     -32.53980000     -71.86860000
C      -42.99450000     -32.97320000     -73.10130000
S      -46.24700000     -30.33680000     -73.37030000
S      -44.04140000     -32.45760000     -74.44810000
H      -42.25080000     -33.70770000     -73.40800000
