40
Properties=species:S:1:pos:R:3 #=T CELL(abcABC):=T 1.889726e+02=T 90.00000=T Traj:=T positionsangstrom=T Step:=T 0=T Bead:=T pbc="F F F"
C      -45.84040000     -37.40190000     -70.13680000
C      -45.56520000     -36.32530000     -70.93850000
C      -46.43270000     -35.20780000     -70.90380000
C      -47.54490000     -35.20980000     -70.06610000
C      -47.82530000     -36.37540000     -69.23670000
C      -46.91570000     -37.43950000     -69.28510000
H      -45.19990000     -38.23330000     -70.09350000
H      -46.13670000     -34.37100000     -71.51550000
H      -48.72710000     -36.43690000     -68.71000000
H      -47.06060000     -38.38930000     -68.71100000
C      -48.52610000     -34.06880000     -70.00730000
H      -49.00170000     -34.13490000     -69.03940000
H      -49.26340000     -34.21540000     -70.81970000
C      -44.28880000     -36.15640000     -71.70840000
H      -44.18070000     -37.10940000     -72.28620000
H      -44.25910000     -35.24020000     -72.16840000
S      -47.82120000     -32.27730000     -70.22100000
S      -42.75510000     -35.91050000     -70.52980000
C      -46.24840000     -32.25610000     -69.19700000
H      -46.51220000     -31.97820000     -68.10850000
H      -45.74980000     -33.20090000     -69.27020000
C      -43.12670000     -34.22390000     -69.91640000
H      -42.74220000     -34.10110000     -68.91510000
H      -44.24110000     -34.22670000     -69.90160000
C      -42.56780000     -33.05590000     -70.83850000
H      -42.63680000     -32.15100000     -70.19980000
H      -41.51210000     -33.21100000     -71.15520000
C      -45.32200000     -31.13240000     -69.64470000
H      -44.28930000     -31.30890000     -69.38360000
H      -45.55450000     -30.22180000     -69.06140000
C      -45.29690000     -30.86760000     -71.09520000
C      -46.05840000     -29.88910000     -71.70500000
C      -44.49730000     -31.67500000     -72.01880000
H      -46.80660000     -29.40830000     -71.21440000
C      -44.76790000     -31.22720000     -73.34080000
C      -43.40130000     -32.67570000     -72.03820000
C      -43.10710000     -33.04680000     -73.32720000
S      -45.98930000     -30.05020000     -73.43520000
S      -43.96300000     -32.18540000     -74.60400000
H      -42.42720000     -33.90350000     -73.54150000
