40
Properties=species:S:1:pos:R:3 #=T CELL(abcABC):=T 1.889726e+02=T 90.00000=T Traj:=T positionsangstrom=T Step:=T 0=T Bead:=T pbc="F F F"
C      -45.75520000     -37.26080000     -70.00940000
C      -45.58110000     -36.28190000     -70.97710000
C      -46.45030000     -35.22240000     -70.99600000
C      -47.54700000     -35.20790000     -70.08500000
C      -47.74970000     -36.26050000     -69.19060000
C      -46.80880000     -37.30890000     -69.13760000
H      -45.04270000     -38.12080000     -70.03990000
H      -46.36320000     -34.37340000     -71.69350000
H      -48.53070000     -36.19170000     -68.40370000
H      -46.80940000     -38.04210000     -68.33580000
C      -48.56550000     -34.12400000     -70.16270000
H      -49.35720000     -34.24040000     -69.39020000
H      -49.25020000     -34.22850000     -71.03890000
C      -44.25980000     -36.19820000     -71.74800000
H      -43.98990000     -37.16730000     -72.25130000
H      -44.27660000     -35.52170000     -72.64880000
S      -47.88200000     -32.44430000     -70.35180000
S      -42.86140000     -35.73780000     -70.68080000
C      -46.37270000     -32.32150000     -69.16790000
H      -46.72080000     -32.22000000     -68.16100000
H      -45.85510000     -33.30450000     -69.08320000
C      -43.22130000     -34.08990000     -70.00020000
H      -42.90820000     -34.09910000     -68.96730000
H      -44.30150000     -33.90150000     -69.91170000
C      -42.56090000     -32.88340000     -70.68150000
H      -42.74420000     -31.98000000     -70.08710000
H      -41.49000000     -33.05810000     -70.79250000
C      -45.44400000     -31.20350000     -69.60560000
H      -44.44610000     -31.55980000     -69.28860000
H      -45.72140000     -30.28980000     -69.14260000
C      -45.41390000     -31.04610000     -71.09940000
C      -46.20860000     -30.04450000     -71.68160000
C      -44.52510000     -31.67950000     -72.02110000
H      -46.71650000     -29.31480000     -71.09840000
C      -44.80720000     -31.36250000     -73.35080000
C      -43.31420000     -32.58260000     -71.94110000
C      -42.87040000     -33.01270000     -73.16470000
S      -45.91650000     -30.05060000     -73.37470000
S      -43.81640000     -32.26330000     -74.53630000
H      -41.97780000     -33.62950000     -73.45410000
