40
Properties=species:S:1:pos:R:3 #=T CELL(abcABC):=T 1.889726e+02=T 90.00000=T Traj:=T positionsangstrom=T Step:=T 0=T Bead:=T pbc="F F F"
C      -45.59830000     -37.15490000     -69.84390000
C      -45.48940000     -36.22540000     -70.90080000
C      -46.56940000     -35.33280000     -71.02620000
C      -47.62240000     -35.22950000     -70.06620000
C      -47.66650000     -36.22970000     -69.03980000
C      -46.68660000     -37.19860000     -68.91820000
H      -44.65590000     -37.74590000     -69.59600000
H      -46.58680000     -34.52940000     -71.79900000
H      -48.60480000     -36.17610000     -68.38080000
H      -46.69190000     -37.94090000     -68.13340000
C      -48.61870000     -34.17630000     -70.13180000
H      -49.12490000     -34.11530000     -69.17290000
H      -49.37790000     -34.30020000     -70.90440000
C      -44.32560000     -36.13380000     -71.81940000
H      -44.01900000     -37.07600000     -72.16410000
H      -44.56040000     -35.52620000     -72.73080000
S      -48.04070000     -32.44590000     -70.47980000
S      -42.75730000     -35.69620000     -70.94860000
C      -46.55460000     -32.38400000     -69.41660000
H      -46.95550000     -32.32950000     -68.40840000
H      -45.96930000     -33.36100000     -69.56630000
C      -43.25990000     -34.26430000     -69.87900000
H      -42.68580000     -34.47360000     -68.91890000
H      -44.35340000     -34.31470000     -69.65190000
C      -42.72580000     -32.94030000     -70.47410000
H      -42.87140000     -32.22230000     -69.66490000
H      -41.64330000     -32.93100000     -70.61390000
C      -45.55290000     -31.19840000     -69.63720000
H      -44.59730000     -31.52590000     -69.12280000
H      -45.86900000     -30.28830000     -69.12910000
C      -45.35450000     -30.97540000     -71.09690000
C      -46.20230000     -30.11180000     -71.78200000
C      -44.47090000     -31.63700000     -71.94020000
H      -46.90080000     -29.35610000     -71.33570000
C      -44.68140000     -31.30840000     -73.26710000
C      -43.25520000     -32.48960000     -71.76930000
C      -42.82490000     -32.88740000     -73.04350000
S      -45.98180000     -30.28290000     -73.48010000
S      -43.66650000     -32.13740000     -74.43460000
H      -41.94350000     -33.45480000     -73.31710000
