40
Properties=species:S:1:pos:R:3 #=T CELL(abcABC):=T 1.889726e+02=T 90.00000=T Traj:=T positionsangstrom=T Step:=T 0=T Bead:=T pbc="F F F"
C      -45.35760000     -36.94560000     -69.73850000
C      -45.44840000     -36.11230000     -70.95250000
C      -46.65600000     -35.33670000     -71.02150000
C      -47.63920000     -35.37580000     -70.03100000
C      -47.46240000     -36.16280000     -68.88950000
C      -46.32790000     -36.97410000     -68.70630000
H      -44.47550000     -37.52490000     -69.71940000
H      -46.76880000     -34.68290000     -71.91440000
H      -48.18010000     -36.13640000     -68.08030000
H      -46.14690000     -37.47820000     -67.77550000
C      -48.75180000     -34.28730000     -70.10470000
H      -49.32370000     -34.27160000     -69.15200000
H      -49.52730000     -34.57870000     -70.86480000
C      -44.42000000     -36.16150000     -71.98140000
H      -44.34260000     -37.13080000     -72.52960000
H      -44.62460000     -35.49360000     -72.82130000
S      -48.24440000     -32.53340000     -70.52850000
S      -42.77640000     -35.62200000     -71.29560000
C      -46.69690000     -32.40210000     -69.38480000
H      -47.01550000     -32.60310000     -68.35290000
H      -46.14820000     -33.32900000     -69.61820000
C      -43.21100000     -34.44480000     -69.91720000
H      -42.78400000     -34.89050000     -69.05900000
H      -44.31540000     -34.62470000     -69.80380000
C      -42.99280000     -32.93790000     -70.12440000
H      -43.45720000     -32.44010000     -69.30350000
H      -41.94380000     -32.67660000     -70.07550000
C      -45.89930000     -31.15550000     -69.77540000
H      -44.95430000     -31.16680000     -69.27010000
H      -46.47290000     -30.22920000     -69.44290000
C      -45.62110000     -31.02200000     -71.20900000
C      -46.39630000     -30.26160000     -72.02830000
C      -44.53520000     -31.63440000     -71.94040000
H      -47.27750000     -29.61680000     -71.68370000
C      -44.64410000     -31.47500000     -73.33760000
C      -43.46080000     -32.47820000     -71.49590000
C      -42.57760000     -32.66250000     -72.54280000
S      -45.97860000     -30.39980000     -73.69930000
S      -43.14380000     -32.01130000     -74.16780000
H      -41.68600000     -33.23410000     -72.45100000
