40
Properties=species:S:1:pos:R:3 #=T CELL(abcABC):=T 1.889726e+02=T 90.00000=T Traj:=T positionsangstrom=T Step:=T 0=T Bead:=T pbc="F F F"
C      -44.57060000     -35.52040000     -71.26540000
C      -45.49800000     -35.46570000     -70.23580000
C      -46.90750000     -35.25130000     -70.54420000
C      -47.27260000     -34.98880000     -71.86740000
C      -46.26200000     -35.05560000     -72.90630000
C      -44.93270000     -35.36500000     -72.61200000
H      -43.56440000     -35.75480000     -71.00110000
H      -47.65810000     -35.46470000     -69.70630000
H      -46.57430000     -34.86080000     -73.90510000
H      -44.07110000     -35.44600000     -73.27930000
C      -48.64400000     -34.60840000     -72.21400000
H      -49.45130000     -35.13250000     -71.59760000
H      -48.93980000     -34.58200000     -73.27530000
C      -45.11900000     -35.90960000     -68.83690000
H      -46.10070000     -35.83660000     -68.25430000
H      -44.87070000     -36.95450000     -68.82660000
S      -48.83780000     -32.69570000     -72.00090000
S      -43.73180000     -34.92730000     -68.13060000
C      -48.00460000     -32.21760000     -70.37170000
H      -48.77810000     -31.72740000     -69.71070000
H      -47.64230000     -33.08120000     -69.77730000
C      -44.50820000     -33.26680000     -68.31710000
H      -44.66950000     -32.81540000     -67.34460000
H      -45.43030000     -33.38330000     -68.82680000
C      -43.68850000     -32.15020000     -69.05000000
H      -44.21100000     -31.17770000     -68.85540000
H      -42.69450000     -32.04000000     -68.55990000
C      -46.74290000     -31.24620000     -70.47360000
H      -46.25110000     -31.33160000     -69.56750000
H      -47.23850000     -30.24340000     -70.51500000
C      -45.75050000     -31.45020000     -71.64650000
C      -46.14350000     -31.23000000     -72.99180000
C      -44.41420000     -32.02510000     -71.63820000
H      -47.13830000     -30.78150000     -73.34290000
C      -43.86140000     -32.27710000     -72.92590000
C      -43.48600000     -32.43300000     -70.54280000
C      -42.31180000     -33.00740000     -71.04540000
S      -45.03710000     -31.78900000     -74.19920000
S      -42.30050000     -33.04430000     -72.84250000
H      -41.42660000     -33.34860000     -70.56270000
