40
Properties=species:S:1:pos:R:3 #=T CELL(abcABC):=T 1.889726e+02=T 90.00000=T Traj:=T positionsangstrom=T Step:=T 0=T Bead:=T pbc="F F F"
C      -48.30840000     -36.35840000     -72.09350000
C      -46.96900000     -36.49820000     -71.60850000
C      -46.65610000     -36.18740000     -70.32570000
C      -47.56980000     -35.55300000     -69.47030000
C      -48.89270000     -35.42940000     -69.92770000
C      -49.29860000     -35.86860000     -71.18530000
H      -48.38020000     -36.68690000     -73.13530000
H      -45.58850000     -36.41940000     -70.11430000
H      -49.58860000     -34.98380000     -69.21460000
H      -50.36050000     -35.83180000     -71.36500000
C      -47.18680000     -35.10630000     -68.02320000
H      -47.16090000     -35.97150000     -67.36710000
H      -47.87930000     -34.31660000     -67.80620000
C      -45.92350000     -37.15660000     -72.56600000
H      -45.91920000     -38.22600000     -72.47980000
H      -46.34460000     -37.06380000     -73.54360000
S      -45.52280000     -34.40630000     -67.89020000
S      -44.18770000     -36.53630000     -72.62980000
C      -45.66090000     -32.67250000     -68.70560000
H      -46.66570000     -32.56700000     -69.08680000
H      -45.40030000     -31.90030000     -68.03820000
C      -44.53380000     -34.73190000     -72.86440000
H      -45.18910000     -34.50820000     -72.05500000
H      -45.13520000     -34.51770000     -73.71710000
C      -43.25900000     -33.86280000     -72.70100000
H      -42.84700000     -33.87250000     -71.65640000
H      -42.42660000     -34.03680000     -73.43610000
C      -44.69870000     -32.72680000     -69.87070000
H      -44.99550000     -33.51640000     -70.61130000
H      -43.62360000     -32.98730000     -69.57120000
C      -44.56900000     -31.40870000     -70.57780000
C      -44.80810000     -30.13440000     -70.14070000
C      -44.01860000     -31.38050000     -71.94350000
H      -45.22250000     -29.92610000     -69.19010000
C      -44.10710000     -30.07160000     -72.47430000
C      -43.59240000     -32.32910000     -72.93970000
C      -43.29980000     -31.77300000     -74.14260000
S      -44.59380000     -28.79230000     -71.31080000
S      -43.67520000     -30.06730000     -74.23280000
H      -42.94320000     -32.18030000     -75.08540000
