40
Properties=species:S:1:pos:R:3 #=T CELL(abcABC):=T 1.889726e+02=T 90.00000=T Traj:=T positionsangstrom=T Step:=T 0=T Bead:=T pbc="F F F"
C      -44.27290000     -35.92100000     -71.65920000
C      -45.09800000     -35.85370000     -70.48590000
C      -46.46830000     -35.53810000     -70.57260000
C      -47.06830000     -35.20150000     -71.79920000
C      -46.27850000     -35.21940000     -72.96830000
C      -44.90750000     -35.55820000     -72.84360000
H      -43.20110000     -36.10880000     -71.58800000
H      -47.02270000     -35.74560000     -69.65670000
H      -46.66470000     -34.99610000     -73.96100000
H      -44.38850000     -35.55520000     -73.79640000
C      -48.53800000     -34.98960000     -71.80050000
H      -48.96640000     -35.72290000     -71.10640000
H      -48.85190000     -35.30790000     -72.85520000
C      -44.50800000     -36.09920000     -69.09540000
H      -45.19760000     -36.54930000     -68.35470000
H      -43.80680000     -36.90180000     -69.24560000
S      -49.17260000     -33.26050000     -71.44320000
S      -43.59490000     -34.56940000     -68.40750000
C      -47.84840000     -32.61900000     -70.24260000
H      -48.32750000     -32.49620000     -69.23340000
H      -47.14600000     -33.51600000     -70.18570000
C      -44.75340000     -33.20020000     -68.52280000
H      -45.30670000     -32.91660000     -67.58060000
H      -45.63350000     -33.47460000     -69.10470000
C      -44.08510000     -31.89390000     -69.02250000
H      -44.72440000     -31.05050000     -68.74110000
H      -43.12810000     -31.79440000     -68.40180000
C      -47.18370000     -31.32800000     -70.85690000
H      -46.81250000     -30.74460000     -70.05440000
H      -47.97920000     -30.64660000     -71.32900000
C      -46.02460000     -31.63530000     -71.86500000
C      -46.35150000     -31.60670000     -73.20420000
C      -44.59380000     -31.93670000     -71.58160000
H      -47.39830000     -31.50780000     -73.48400000
C      -43.90880000     -32.01130000     -72.79980000
C      -43.69610000     -31.99110000     -70.46270000
C      -42.40120000     -32.07310000     -70.88720000
S      -44.99330000     -32.05300000     -74.21190000
S      -42.21610000     -32.01780000     -72.60210000
H      -41.51710000     -32.20970000     -70.28160000
