40
Properties=species:S:1:pos:R:3 #=T CELL(abcABC):=T 1.889726e+02=T 90.00000=T Traj:=T positionsangstrom=T Step:=T 0=T Bead:=T pbc="F F F"
C      -43.69750000     -35.35180000     -71.56270000
C      -44.40810000     -35.55780000     -70.33790000
C      -45.80810000     -35.68520000     -70.36730000
C      -46.51370000     -35.61110000     -71.55720000
C      -45.84330000     -35.38160000     -72.78080000
C      -44.40490000     -35.30350000     -72.75180000
H      -42.62490000     -35.30930000     -71.61220000
H      -46.37600000     -35.88360000     -69.37050000
H      -46.45040000     -35.14670000     -73.69690000
H      -43.89740000     -35.39830000     -73.74590000
C      -48.07870000     -35.64290000     -71.48390000
H      -48.31810000     -36.03640000     -70.52020000
H      -48.57320000     -36.33790000     -72.20310000
C      -43.69870000     -35.65770000     -69.01090000
H      -44.27630000     -36.04250000     -68.20740000
H      -42.74070000     -36.05760000     -69.16210000
S      -48.93020000     -34.04020000     -71.67910000
S      -43.20100000     -33.96840000     -68.54600000
C      -48.13820000     -32.87060000     -70.43280000
H      -48.78430000     -32.58990000     -69.66170000
H      -47.22590000     -33.27940000     -69.95600000
C      -44.78130000     -33.17790000     -68.23310000
H      -44.97290000     -32.96230000     -67.20950000
H      -45.51200000     -33.83000000     -68.62330000
C      -44.84150000     -31.76460000     -69.09000000
H      -45.85990000     -31.44020000     -69.07500000
H      -44.35260000     -31.00490000     -68.53840000
C      -47.72270000     -31.55830000     -71.10140000
H      -47.53630000     -30.90780000     -70.27430000
H      -48.58270000     -31.03930000     -71.67530000
C      -46.47320000     -31.78600000     -72.00100000
C      -46.75660000     -31.88410000     -73.35390000
C      -45.10500000     -31.91050000     -71.67430000
H      -47.69630000     -31.72700000     -73.83130000
C      -44.32870000     -32.02510000     -72.82390000
C      -44.31440000     -31.82080000     -70.46190000
C      -42.99020000     -31.71560000     -70.74800000
S      -45.23950000     -32.00290000     -74.31380000
S      -42.63940000     -31.89980000     -72.51070000
H      -42.20440000     -31.56780000     -70.04490000
