40
Properties=species:S:1:pos:R:3 #=T CELL(abcABC):=T 1.889726e+02=T 90.00000=T Traj:=T positionsangstrom=T Step:=T 0=T Bead:=T pbc="F F F"
C      -43.54230000     -35.51810000     -71.43290000
C      -44.25950000     -35.59290000     -70.24670000
C      -45.67530000     -35.77230000     -70.29880000
C      -46.36800000     -35.61670000     -71.47170000
C      -45.66030000     -35.30700000     -72.69900000
C      -44.28730000     -35.36390000     -72.61350000
H      -42.48870000     -35.49860000     -71.45180000
H      -46.18250000     -36.18710000     -69.40640000
H      -46.20610000     -35.18670000     -73.64590000
H      -43.65110000     -35.25920000     -73.51150000
C      -47.83330000     -35.86680000     -71.57900000
H      -48.20550000     -36.57940000     -70.79610000
H      -48.09390000     -36.41110000     -72.52740000
C      -43.49830000     -35.57430000     -68.93700000
H      -44.14310000     -36.02050000     -68.16890000
H      -42.60390000     -36.25090000     -68.94020000
S      -48.90880000     -34.30190000     -71.55400000
S      -43.21880000     -33.82560000     -68.35820000
C      -47.97840000     -33.12470000     -70.42820000
H      -48.63610000     -32.92650000     -69.50980000
H      -47.04630000     -33.64370000     -70.12650000
C      -44.86290000     -33.14040000     -68.47640000
H      -45.33330000     -33.18000000     -67.42350000
H      -45.51430000     -33.79290000     -69.05690000
C      -44.89890000     -31.66410000     -69.15370000
H      -45.92320000     -31.25160000     -69.08620000
H      -44.18270000     -30.96950000     -68.59720000
C      -47.70010000     -31.68800000     -71.08830000
H      -47.53120000     -31.07660000     -70.22590000
H      -48.61010000     -31.31470000     -71.58540000
C      -46.62730000     -31.72850000     -72.14500000
C      -46.82960000     -31.93550000     -73.49180000
C      -45.26780000     -31.69600000     -71.77840000
H      -47.76110000     -31.89870000     -73.92950000
C      -44.45540000     -31.74370000     -72.94140000
C      -44.47370000     -31.64450000     -70.55400000
C      -43.14790000     -31.79940000     -70.79730000
S      -45.37160000     -31.87670000     -74.44680000
S      -42.75860000     -31.80370000     -72.53540000
H      -42.40240000     -31.54940000     -70.06270000
