40
Properties=species:S:1:pos:R:3 #=T CELL(abcABC):=T 1.889726e+02=T 90.00000=T Traj:=T positionsangstrom=T Step:=T 0=T Bead:=T pbc="F F F"
C      -45.52070000     -36.57010000     -68.84720000
C      -45.30890000     -35.73510000     -69.96380000
C      -46.36420000     -34.99620000     -70.48500000
C      -47.65970000     -35.07090000     -69.88180000
C      -47.80480000     -35.84030000     -68.74330000
C      -46.74250000     -36.58930000     -68.27810000
H      -44.80570000     -37.11500000     -68.27830000
H      -46.17980000     -34.43520000     -71.43610000
H      -48.76680000     -35.93360000     -68.30920000
H      -46.86180000     -37.23550000     -67.39010000
C      -48.79230000     -34.41260000     -70.56120000
H      -49.82300000     -34.59650000     -70.16170000
H      -48.94240000     -34.78290000     -71.56010000
C      -43.84380000     -35.58560000     -70.46370000
H      -43.38080000     -36.54930000     -70.44760000
H      -43.77100000     -35.19660000     -71.46980000
S      -48.74410000     -32.55310000     -70.70320000
S      -42.73620000     -34.53300000     -69.38920000
C      -47.10240000     -31.93870000     -70.12700000
H      -47.40870000     -31.46230000     -69.21120000
H      -46.45840000     -32.77670000     -69.96110000
C      -43.55130000     -32.89190000     -69.18860000
H      -43.31130000     -32.50440000     -68.20640000
H      -44.60610000     -32.89610000     -69.20830000
C      -43.15190000     -31.78130000     -70.22610000
H      -43.83560000     -30.95890000     -70.04650000
H      -42.14670000     -31.41140000     -70.05250000
C      -46.50320000     -30.93950000     -71.10650000
H      -45.84690000     -30.29210000     -70.49540000
H      -47.30480000     -30.22570000     -71.37900000
C      -45.83530000     -31.40790000     -72.38840000
C      -46.52840000     -31.41870000     -73.57930000
C      -44.46770000     -31.90190000     -72.55180000
H      -47.51640000     -31.13280000     -73.79830000
C      -44.24600000     -32.31440000     -73.89070000
C      -43.31920000     -32.16350000     -71.71870000
C      -42.35420000     -32.81970000     -72.43710000
S      -45.58860000     -32.02350000     -74.95310000
S      -42.60980000     -33.04820000     -74.12640000
H      -41.36080000     -33.11480000     -72.04910000
