40
Properties=species:S:1:pos:R:3 #=T CELL(abcABC):=T 1.889726e+02=T 90.00000=T Traj:=T positionsangstrom=T Step:=T 0=T Bead:=T pbc="F F F"
C      -48.23950000     -36.30210000     -72.10600000
C      -46.96140000     -36.46110000     -71.67360000
C      -46.52160000     -35.94040000     -70.42800000
C      -47.46440000     -35.33150000     -69.58230000
C      -48.77050000     -35.19950000     -70.01020000
C      -49.18850000     -35.70620000     -71.28030000
H      -48.38490000     -36.83210000     -73.03170000
H      -45.46940000     -36.17520000     -70.15110000
H      -49.48780000     -34.71820000     -69.30650000
H      -50.19240000     -35.74950000     -71.49780000
C      -47.23300000     -35.11910000     -68.10940000
H      -47.39570000     -36.05220000     -67.54340000
H      -48.02040000     -34.45560000     -67.66390000
C      -46.00330000     -37.28800000     -72.45600000
H      -45.83350000     -38.23120000     -71.90250000
H      -46.40810000     -37.48390000     -73.46310000
S      -45.54780000     -34.41460000     -67.75120000
S      -44.33870000     -36.40930000     -72.39430000
C      -45.66270000     -32.85030000     -68.66790000
H      -46.67080000     -32.80830000     -69.13450000
H      -45.73180000     -31.96920000     -67.90080000
C      -44.73120000     -34.79990000     -73.07270000
H      -45.64560000     -34.36170000     -72.62000000
H      -44.79740000     -34.86250000     -74.22170000
C      -43.48260000     -33.86920000     -72.81670000
H      -43.14510000     -34.08940000     -71.83330000
H      -42.79460000     -34.26320000     -73.50700000
C      -44.57740000     -32.76560000     -69.79070000
H      -44.53810000     -33.72430000     -70.19210000
H      -43.65840000     -32.81920000     -69.20780000
C      -44.58480000     -31.52210000     -70.70360000
C      -44.83180000     -30.27070000     -70.17120000
C      -44.24060000     -31.42320000     -72.10600000
H      -44.95750000     -30.06910000     -69.16440000
C      -44.22220000     -30.12480000     -72.55410000
C      -43.74610000     -32.38350000     -73.11040000
C      -43.29960000     -31.83890000     -74.23620000
S      -44.50340000     -28.94410000     -71.29290000
S      -43.42440000     -30.01090000     -74.13020000
H      -42.92240000     -32.22220000     -75.20920000
