40
Properties=species:S:1:pos:R:3 #=T CELL(abcABC):=T 1.889726e+02=T 90.00000=T Traj:=T positionsangstrom=T Step:=T 0=T Bead:=T pbc="F F F"
C      -45.50640000     -35.95260000     -68.37020000
C      -45.09480000     -35.79950000     -69.73120000
C      -46.07610000     -35.36530000     -70.64850000
C      -47.39670000     -35.08830000     -70.28380000
C      -47.79610000     -35.19740000     -68.92830000
C      -46.80690000     -35.55730000     -68.02900000
H      -44.78420000     -36.31260000     -67.67190000
H      -45.72320000     -35.25900000     -71.68580000
H      -48.80650000     -35.08420000     -68.47330000
H      -47.06930000     -35.50240000     -67.01060000
C      -48.46540000     -34.62040000     -71.27330000
H      -49.37690000     -35.21100000     -71.00030000
H      -48.16520000     -34.86180000     -72.35300000
C      -43.68350000     -36.01360000     -70.08740000
H      -43.21130000     -36.79550000     -69.56160000
H      -43.42400000     -36.15420000     -71.15620000
S      -48.92260000     -32.80690000     -71.04470000
S      -42.51480000     -34.58210000     -69.45410000
C      -47.47530000     -32.06710000     -70.21570000
H      -47.77800000     -31.58840000     -69.31360000
H      -46.77380000     -32.77790000     -69.82850000
C      -43.63020000     -33.18200000     -69.12750000
H      -43.56880000     -32.89840000     -68.10680000
H      -44.56170000     -33.57590000     -69.29950000
C      -43.44420000     -31.99170000     -70.04450000
H      -44.30720000     -31.34340000     -69.81330000
H      -42.58920000     -31.41090000     -69.76080000
C      -46.66430000     -31.05340000     -71.12160000
H      -45.87600000     -30.61630000     -70.48630000
H      -47.36550000     -30.26980000     -71.30780000
C      -46.01980000     -31.57470000     -72.33220000
C      -46.61780000     -31.53930000     -73.60770000
C      -44.61600000     -32.21600000     -72.41120000
H      -47.65620000     -31.10040000     -73.83400000
C      -44.28220000     -32.34730000     -73.76750000
C      -43.41800000     -32.24120000     -71.57110000
C      -42.28260000     -32.47240000     -72.26370000
S      -45.59050000     -32.14000000     -74.96480000
S      -42.58150000     -32.65470000     -73.97220000
H      -41.34290000     -32.20810000     -71.83540000
