40
Properties=species:S:1:pos:R:3 #=T CELL(abcABC):=T 1.889726e+02=T 90.00000=T Traj:=T positionsangstrom=T Step:=T 0=T Bead:=T pbc="F F F"
C      -45.48280000     -35.81820000     -68.25610000
C      -45.07080000     -35.74580000     -69.63090000
C      -45.97280000     -35.38550000     -70.63500000
C      -47.27840000     -35.10380000     -70.29700000
C      -47.73560000     -35.24230000     -68.98730000
C      -46.84590000     -35.60570000     -68.02420000
H      -44.70660000     -36.05420000     -67.53820000
H      -45.62470000     -35.33510000     -71.65590000
H      -48.76190000     -34.88000000     -68.74310000
H      -47.19630000     -35.58040000     -66.96530000
C      -48.09230000     -34.60990000     -71.49380000
H      -48.83360000     -35.24450000     -71.77870000
H      -47.49080000     -34.56150000     -72.37620000
C      -43.59600000     -35.97010000     -69.98960000
H      -43.16620000     -36.83270000     -69.47180000
H      -43.46420000     -36.12240000     -71.04660000
S      -48.82460000     -32.92860000     -71.21340000
S      -42.62120000     -34.50830000     -69.45590000
C      -47.53490000     -32.02330000     -70.21870000
H      -48.11570000     -31.35090000     -69.49500000
H      -47.01870000     -32.84310000     -69.63770000
C      -43.86190000     -33.04970000     -69.30750000
H      -44.00760000     -32.78400000     -68.19010000
H      -44.85620000     -33.33790000     -69.69410000
C      -43.38590000     -31.83300000     -70.03500000
H      -44.03030000     -30.92220000     -69.92990000
H      -42.44640000     -31.48070000     -69.60630000
C      -46.67440000     -31.02940000     -71.08350000
H      -45.97480000     -30.56590000     -70.36310000
H      -47.27880000     -30.16500000     -71.41760000
C      -45.98410000     -31.63980000     -72.25280000
C      -46.68820000     -31.80470000     -73.48200000
C      -44.60890000     -32.05980000     -72.43300000
H      -47.80820000     -31.66050000     -73.52090000
C      -44.29900000     -32.22300000     -73.73800000
C      -43.36700000     -32.15940000     -71.55320000
C      -42.26700000     -32.50720000     -72.22200000
S      -45.69300000     -32.16580000     -74.87250000
S      -42.67910000     -32.77840000     -73.93510000
H      -41.29100000     -32.55980000     -71.84120000
