40
Properties=species:S:1:pos:R:3 #=T CELL(abcABC):=T 1.889726e+02=T 90.00000=T Traj:=T positionsangstrom=T Step:=T 0=T Bead:=T pbc="F F F"
C      -45.66110000     -35.84990000     -68.27050000
C      -45.02760000     -35.72520000     -69.53920000
C      -45.80650000     -35.42660000     -70.72950000
C      -47.20730000     -35.11050000     -70.58790000
C      -47.74670000     -35.17910000     -69.25940000
C      -47.06080000     -35.69760000     -68.12510000
H      -45.02410000     -36.14340000     -67.41390000
H      -45.33930000     -35.21200000     -71.70160000
H      -48.82240000     -35.02100000     -69.18380000
H      -47.50760000     -36.03180000     -67.19740000
C      -48.05170000     -34.58330000     -71.63160000
H      -48.96980000     -35.28290000     -71.84500000
H      -47.43910000     -34.43850000     -72.55540000
C      -43.54960000     -35.93530000     -69.66280000
H      -43.28670000     -36.82440000     -68.98200000
H      -43.43470000     -36.14470000     -70.71890000
S      -48.85560000     -32.94620000     -71.24380000
S      -42.59640000     -34.37970000     -69.30260000
C      -47.55870000     -32.05300000     -70.23960000
H      -48.07510000     -31.45670000     -69.53370000
H      -46.96520000     -32.71180000     -69.67670000
C      -43.79150000     -32.95120000     -69.40350000
H      -44.12780000     -32.82180000     -68.43260000
H      -44.65100000     -33.33160000     -69.95150000
C      -43.26190000     -31.67980000     -70.10850000
H      -43.99930000     -30.94900000     -69.87220000
H      -42.21550000     -31.46050000     -69.83640000
C      -46.61790000     -30.97710000     -70.97980000
H      -45.91370000     -30.56890000     -70.29800000
H      -47.28610000     -30.15790000     -71.24620000
C      -45.87430000     -31.49980000     -72.20450000
C      -46.63370000     -31.62890000     -73.42320000
C      -44.54190000     -31.89690000     -72.41310000
H      -47.62770000     -31.21260000     -73.46570000
C      -44.36600000     -32.28740000     -73.72150000
C      -43.33280000     -32.07440000     -71.55200000
C      -42.31850000     -32.50850000     -72.30600000
S      -45.75220000     -32.39610000     -74.75250000
S      -42.74230000     -32.93080000     -73.96440000
H      -41.31980000     -32.75500000     -71.98150000
