40
Properties=species:S:1:pos:R:3 #=T CELL(abcABC):=T 1.889726e+02=T 90.00000=T Traj:=T positionsangstrom=T Step:=T 0=T Bead:=T pbc="F F F"
C      -48.21770000     -36.30650000     -72.07900000
C      -46.98460000     -36.56720000     -71.53900000
C      -46.76460000     -36.20750000     -70.16390000
C      -47.68200000     -35.45020000     -69.44240000
C      -48.87240000     -35.05030000     -70.09160000
C      -49.17640000     -35.49370000     -71.39350000
H      -48.41150000     -36.58510000     -73.08120000
H      -45.82480000     -36.48230000     -69.71960000
H      -49.50640000     -34.41070000     -69.49250000
H      -50.02350000     -35.10900000     -71.91720000
C      -47.34280000     -34.98540000     -68.05400000
H      -47.47120000     -35.86210000     -67.37530000
H      -48.09880000     -34.29330000     -67.72300000
C      -45.96440000     -37.23950000     -72.43210000
H      -45.73070000     -38.20200000     -71.99500000
H      -46.35110000     -37.37500000     -73.47980000
S      -45.68680000     -34.33470000     -67.67970000
S      -44.34270000     -36.45870000     -72.51760000
C      -45.47030000     -32.73630000     -68.73370000
H      -46.44530000     -32.42970000     -69.00630000
H      -45.03300000     -31.93180000     -68.14400000
C      -44.68580000     -34.72750000     -73.20340000
H      -45.59430000     -34.33760000     -72.69210000
H      -45.02930000     -34.84710000     -74.19430000
C      -43.41210000     -33.93420000     -72.97800000
H      -42.96790000     -34.17230000     -72.01920000
H      -42.54870000     -34.20370000     -73.67260000
C      -44.58480000     -32.92010000     -69.99640000
H      -45.14090000     -33.58160000     -70.70790000
H      -43.52910000     -33.20750000     -69.67250000
C      -44.34460000     -31.59560000     -70.66840000
C      -44.83760000     -30.43220000     -70.17080000
C      -43.90730000     -31.47470000     -72.04690000
H      -45.25430000     -30.29270000     -69.19460000
C      -43.90920000     -30.13230000     -72.39510000
C      -43.49820000     -32.40460000     -73.11400000
C      -43.28440000     -31.66440000     -74.19770000
S      -44.68810000     -29.03940000     -71.31760000
S      -43.40880000     -29.94390000     -74.06570000
H      -42.95410000     -32.13070000     -75.17920000
