40
Properties=species:S:1:pos:R:3 #=T CELL(abcABC):=T 1.889726e+02=T 90.00000=T Traj:=T positionsangstrom=T Step:=T 0=T Bead:=T pbc="F F F"
C      -44.24070000     -30.68050000     -72.51950000
C      -43.12430000     -31.30830000     -71.90010000
C      -42.52640000     -32.40420000     -72.59730000
C      -42.95560000     -32.76420000     -73.87740000
C      -43.99810000     -32.07470000     -74.49590000
C      -44.63720000     -31.00870000     -73.76880000
H      -44.80780000     -29.89800000     -72.02890000
H      -41.80840000     -33.09040000     -72.21310000
H      -44.49590000     -32.49100000     -75.42350000
H      -45.55150000     -30.52220000     -74.23810000
C      -42.47920000     -33.93220000     -74.67940000
H      -41.35820000     -34.14990000     -74.62020000
H      -42.62230000     -33.87690000     -75.82110000
C      -42.65310000     -30.69090000     -70.62180000
H      -41.72280000     -31.19000000     -70.19400000
H      -42.49090000     -29.59260000     -70.64650000
S      -43.31800000     -35.52760000     -74.14160000
S      -44.02210000     -30.93090000     -69.39410000
C      -45.10110000     -35.15540000     -73.68340000
H      -45.44180000     -34.40160000     -74.42130000
H      -45.75260000     -36.06510000     -73.87590000
C      -43.64720000     -32.49800000     -68.50640000
H      -43.73600000     -32.21720000     -67.49390000
H      -42.60780000     -32.73630000     -68.64570000
C      -44.42630000     -33.71690000     -69.12710000
H      -44.02200000     -33.82520000     -70.17320000
H      -44.03300000     -34.62260000     -68.58010000
C      -45.20920000     -34.78460000     -72.14000000
H      -44.82050000     -33.78240000     -72.01450000
H      -44.48840000     -35.40780000     -71.61960000
C      -46.55250000     -34.92930000     -71.52880000
C      -47.80890000     -35.18680000     -72.12660000
C      -46.79640000     -34.45780000     -70.14570000
H      -47.94900000     -35.55330000     -73.13860000
C      -48.12500000     -34.43160000     -69.79050000
C      -45.96930000     -33.80340000     -69.09770000
C      -46.79890000     -33.31360000     -68.07950000
S      -49.20450000     -34.95070000     -71.11460000
S      -48.53220000     -33.66090000     -68.27690000
H      -46.43690000     -32.78190000     -67.20030000
