40
Properties=species:S:1:pos:R:3 #=T CELL(abcABC):=T 1.889726e+02=T 90.00000=T Traj:=T positionsangstrom=T Step:=T 0=T Bead:=T pbc="F F F"
C      -45.28750000     -32.79810000     -75.75250000
C      -45.09030000     -32.02860000     -74.61060000
C      -44.00150000     -32.32670000     -73.78060000
C      -43.00150000     -33.20890000     -74.15460000
C      -43.22020000     -33.98770000     -75.34430000
C      -44.45510000     -33.85190000     -76.02370000
H      -46.26920000     -32.62450000     -76.34210000
H      -43.90690000     -31.80400000     -72.87300000
H      -42.40550000     -34.61130000     -75.57490000
H      -44.76220000     -34.47760000     -76.85810000
C      -41.76560000     -33.59540000     -73.31670000
H      -40.85650000     -33.29530000     -73.83590000
H      -41.70980000     -34.66270000     -73.21930000
C      -46.09260000     -31.02010000     -74.29340000
H      -45.83210000     -30.32260000     -73.48720000
H      -46.45250000     -30.59780000     -75.24160000
S      -41.64800000     -32.70930000     -71.69010000
S      -47.61470000     -31.75520000     -73.67050000
C      -42.49250000     -33.80820000     -70.51350000
H      -42.22690000     -34.86650000     -70.65520000
H      -42.03980000     -33.60430000     -69.58350000
C      -47.21120000     -32.10410000     -71.93900000
H      -47.92290000     -31.65190000     -71.27260000
H      -46.21920000     -31.75160000     -71.69580000
C      -47.27630000     -33.64240000     -71.60840000
H      -48.06360000     -34.20960000     -72.07890000
H      -46.34620000     -34.07800000     -72.07200000
C      -44.00050000     -33.52380000     -70.47310000
H      -44.52250000     -33.93840000     -71.34780000
H      -44.15640000     -32.49250000     -70.55460000
C      -44.74110000     -34.06050000     -69.23520000
C      -44.12630000     -34.42650000     -68.07620000
C      -46.18600000     -33.96800000     -69.11630000
H      -43.04060000     -34.51450000     -67.89320000
C      -46.68050000     -34.35250000     -67.87840000
C      -47.27420000     -33.90170000     -70.08440000
C      -48.53780000     -34.11340000     -69.51360000
S      -45.36890000     -34.67000000     -66.73870000
S      -48.41920000     -34.55900000     -67.81310000
H      -49.53800000     -33.86400000     -69.91910000
