40
Properties=species:S:1:pos:R:3 #=T CELL(abcABC):=T 1.889726e+02=T 90.00000=T Traj:=T positionsangstrom=T Step:=T 0=T Bead:=T pbc="F F F"
C      -45.17650000     -32.93510000     -75.90410000
C      -45.06000000     -32.14210000     -74.74760000
C      -43.97070000     -32.31080000     -73.91240000
C      -43.08630000     -33.41560000     -74.09520000
C      -43.26790000     -34.25660000     -75.20010000
C      -44.30710000     -33.99980000     -76.11740000
H      -46.02920000     -32.71480000     -76.52260000
H      -43.85500000     -31.59770000     -73.05910000
H      -42.66970000     -35.11170000     -75.10630000
H      -44.40100000     -34.62160000     -77.02890000
C      -41.80700000     -33.59270000     -73.31830000
H      -40.99530000     -33.09420000     -73.93230000
H      -41.51460000     -34.65820000     -73.39990000
C      -46.01410000     -31.03290000     -74.42130000
H      -45.43500000     -30.32270000     -73.76100000
H      -46.36060000     -30.49860000     -75.32980000
S      -41.57290000     -32.83460000     -71.70860000
S      -47.67430000     -31.61190000     -73.62510000
C      -42.48490000     -33.81430000     -70.40670000
H      -42.15460000     -34.85700000     -70.22840000
H      -42.10710000     -33.12610000     -69.62270000
C      -47.16660000     -31.96950000     -71.82170000
H      -47.90160000     -31.39860000     -71.15830000
H      -46.14020000     -31.65200000     -71.58260000
C      -47.17350000     -33.50420000     -71.61980000
H      -48.14630000     -33.81610000     -71.98970000
H      -46.32310000     -33.96360000     -72.10930000
C      -43.97390000     -33.85380000     -70.50700000
H      -44.04320000     -34.82120000     -71.11960000
H      -44.38180000     -33.03320000     -71.10650000
C      -44.74330000     -34.04180000     -69.21850000
C      -44.31170000     -34.15770000     -67.92610000
C      -46.16670000     -34.09280000     -69.16300000
H      -43.29380000     -34.18090000     -67.62880000
C      -46.70640000     -34.45210000     -67.94130000
C      -47.25280000     -33.86570000     -70.11850000
C      -48.51440000     -34.07610000     -69.53310000
S      -45.48790000     -34.54490000     -66.69070000
S      -48.44470000     -34.40740000     -67.78380000
H      -49.48170000     -33.80270000     -70.06150000
