40
Properties=species:S:1:pos:R:3 #=T CELL(abcABC):=T 1.889726e+02=T 90.00000=T Traj:=T positionsangstrom=T Step:=T 0=T Bead:=T pbc="F F F"
C      -48.18370000     -35.98380000     -72.15860000
C      -46.95800000     -36.35330000     -71.53060000
C      -46.84590000     -36.10860000     -70.18030000
C      -47.79990000     -35.42100000     -69.44660000
C      -49.00160000     -35.02320000     -70.05400000
C      -49.10660000     -35.26110000     -71.42770000
H      -48.36460000     -36.21400000     -73.17830000
H      -45.92710000     -36.24800000     -69.63910000
H      -49.73730000     -34.47930000     -69.53570000
H      -50.06150000     -34.98250000     -71.93560000
C      -47.50380000     -34.86170000     -68.05700000
H      -47.74400000     -35.55620000     -67.25870000
H      -47.97330000     -33.87730000     -67.98210000
C      -45.90050000     -37.18140000     -72.26830000
H      -45.68390000     -38.09980000     -71.71750000
H      -46.38090000     -37.56220000     -73.17160000
S      -45.69220000     -34.41460000     -67.68130000
S      -44.27080000     -36.43610000     -72.62820000
C      -45.46510000     -32.80130000     -68.56650000
H      -46.51280000     -32.36040000     -68.68080000
H      -44.81340000     -32.21540000     -67.95910000
C      -44.46920000     -34.66280000     -72.95530000
H      -45.12300000     -34.20310000     -72.19040000
H      -44.96490000     -34.48940000     -73.94190000
C      -43.14920000     -33.89760000     -72.93620000
H      -42.62080000     -34.13590000     -72.02220000
H      -42.53360000     -34.34030000     -73.70060000
C      -44.90830000     -33.02450000     -69.96750000
H      -45.65360000     -33.60610000     -70.60090000
H      -43.98900000     -33.56260000     -69.99120000
C      -44.57900000     -31.72990000     -70.77950000
C      -44.93480000     -30.49990000     -70.24320000
C      -44.07670000     -31.57870000     -72.12370000
H      -45.45900000     -30.22120000     -69.33690000
C      -44.05360000     -30.20130000     -72.53650000
C      -43.35690000     -32.42670000     -73.06950000
C      -42.97000000     -31.75510000     -74.17590000
S      -44.58240000     -29.15410000     -71.27410000
S      -43.46410000     -30.01440000     -74.12890000
H      -42.23800000     -32.14300000     -74.88420000
