40
Properties=species:S:1:pos:R:3 #=T CELL(abcABC):=T 1.889726e+02=T 90.00000=T Traj:=T positionsangstrom=T Step:=T 0=T Bead:=T pbc="F F F"
C      -46.50290000     -35.29300000     -68.50070000
C      -45.80340000     -35.11120000     -69.71910000
C      -46.48760000     -34.31030000     -70.66340000
C      -47.64570000     -33.61740000     -70.36610000
C      -48.16430000     -33.64820000     -69.11330000
C      -47.64290000     -34.51140000     -68.15130000
H      -46.17080000     -36.05720000     -67.84510000
H      -46.06870000     -34.23350000     -71.69240000
H      -49.06680000     -33.08200000     -68.91070000
H      -48.13800000     -34.42380000     -67.17420000
C      -48.37820000     -32.78430000     -71.36890000
H      -49.45340000     -32.97590000     -71.46440000
H      -47.99610000     -33.00370000     -72.38080000
C      -44.46260000     -35.77610000     -70.09140000
H      -44.47620000     -36.87190000     -69.79140000
H      -44.35060000     -35.76810000     -71.16540000
S      -48.08720000     -30.96690000     -70.89480000
S      -42.96400000     -35.02680000     -69.22180000
C      -46.33510000     -30.78390000     -70.37600000
H      -46.29590000     -29.85870000     -69.88380000
H      -46.07330000     -31.54100000     -69.58840000
C      -43.24800000     -33.19810000     -69.25130000
H      -42.96320000     -32.66010000     -68.38620000
H      -44.37030000     -33.10290000     -69.36630000
C      -42.64370000     -32.53390000     -70.51710000
H      -42.83800000     -31.46130000     -70.58990000
H      -41.55850000     -32.72200000     -70.45090000
C      -45.28290000     -30.54520000     -71.48400000
H      -44.35590000     -30.24790000     -70.97870000
H      -45.51370000     -29.65380000     -72.04260000
C      -45.15090000     -31.74030000     -72.48560000
C      -46.01930000     -31.70490000     -73.53850000
C      -44.23800000     -32.82180000     -72.56460000
H      -46.83210000     -30.96200000     -73.51190000
C      -44.49890000     -33.70000000     -73.64620000
C      -43.10170000     -33.28310000     -71.76810000
C      -42.54490000     -34.47770000     -72.26100000
S      -45.76870000     -33.11940000     -74.64620000
S      -43.33850000     -35.02120000     -73.76330000
H      -41.81010000     -35.17320000     -71.76210000
