40
Properties=species:S:1:pos:R:3 #=T CELL(abcABC):=T 1.889726e+02=T 90.00000=T Traj:=T positionsangstrom=T Step:=T 0=T Bead:=T pbc="F F F"
C      -46.69190000     -35.33250000     -68.13110000
C      -46.02610000     -35.25430000     -69.36450000
C      -46.49970000     -34.44470000     -70.40760000
C      -47.70520000     -33.77030000     -70.29220000
C      -48.39510000     -33.84760000     -69.05310000
C      -47.91590000     -34.66990000     -68.05640000
H      -46.29210000     -35.94600000     -67.34180000
H      -45.90860000     -34.32600000     -71.37550000
H      -49.40150000     -33.47580000     -68.95100000
H      -48.63710000     -34.89050000     -67.29950000
C      -48.13140000     -32.79310000     -71.37560000
H      -49.25730000     -32.77130000     -71.42440000
H      -47.72430000     -33.09450000     -72.36430000
C      -44.73790000     -35.99060000     -69.54390000
H      -44.75840000     -36.96270000     -69.03800000
H      -44.47010000     -36.24510000     -70.61610000
S      -47.79090000     -30.92620000     -70.97860000
S      -43.26230000     -35.01450000     -68.74020000
C      -46.08250000     -30.87890000     -70.42760000
H      -46.02470000     -30.07270000     -69.69530000
H      -45.89550000     -31.82350000     -69.93290000
C      -43.40840000     -33.31120000     -69.29490000
H      -43.00660000     -32.62440000     -68.57660000
H      -44.45690000     -32.85870000     -69.35920000
C      -42.60600000     -32.97030000     -70.62500000
H      -42.46710000     -31.93530000     -70.69870000
H      -41.57580000     -33.35360000     -70.42390000
C      -44.97330000     -30.62140000     -71.47520000
H      -43.94510000     -30.70950000     -70.98510000
H      -45.11360000     -29.61380000     -71.84990000
C      -44.95480000     -31.53460000     -72.62850000
C      -45.83620000     -31.41500000     -73.68620000
C      -44.17180000     -32.74700000     -72.79520000
H      -46.54890000     -30.57120000     -73.89520000
C      -44.40750000     -33.47930000     -73.94630000
C      -43.14160000     -33.42990000     -71.91390000
C      -42.64890000     -34.56390000     -72.47340000
S      -45.61610000     -32.71750000     -74.88270000
S      -43.45280000     -34.93970000     -74.10200000
H      -41.81240000     -35.12780000     -71.99350000
