40
Properties=species:S:1:pos:R:3 #=T CELL(abcABC):=T 1.889726e+02=T 90.00000=T Traj:=T positionsangstrom=T Step:=T 0=T Bead:=T pbc="F F F"
C      -43.88920000     -30.73660000     -74.58680000
C      -43.56990000     -31.24470000     -73.33910000
C      -43.22760000     -32.58510000     -73.21350000
C      -43.02420000     -33.43280000     -74.30620000
C      -43.32890000     -32.89050000     -75.57990000
C      -43.79840000     -31.52250000     -75.71190000
H      -44.23960000     -29.65570000     -74.52190000
H      -43.08230000     -33.05790000     -72.23900000
H      -43.39540000     -33.46710000     -76.50190000
H      -44.01830000     -30.97520000     -76.69760000
C      -42.62970000     -34.88310000     -74.14040000
H      -41.55240000     -35.01040000     -74.37740000
H      -43.13630000     -35.49950000     -74.86330000
C      -43.68040000     -30.41320000     -72.10080000
H      -42.73980000     -30.26320000     -71.50390000
H      -43.85690000     -29.38060000     -72.42150000
S      -42.95210000     -35.51540000     -72.49140000
S      -44.97150000     -30.95090000     -70.96710000
C      -44.82400000     -35.38830000     -72.30330000
H      -45.09400000     -34.29990000     -72.31240000
H      -45.33560000     -35.79330000     -73.16710000
C      -43.96580000     -31.47010000     -69.54830000
H      -44.25810000     -30.79040000     -68.71970000
H      -42.85660000     -31.31190000     -69.60540000
C      -44.29660000     -32.92070000     -69.32680000
H      -43.95950000     -33.51580000     -70.10070000
H      -43.79610000     -33.31960000     -68.36850000
C      -45.22980000     -35.99150000     -70.99580000
H      -44.52990000     -35.86760000     -70.14760000
H      -45.34110000     -37.08130000     -71.04800000
C      -46.54760000     -35.43210000     -70.45330000
C      -47.67960000     -36.13010000     -70.55590000
C      -46.65320000     -34.26500000     -69.62930000
H      -47.87280000     -37.09930000     -70.93810000
C      -47.95490000     -34.02360000     -69.16750000
C      -45.79090000     -33.20440000     -69.07870000
C      -46.48930000     -32.33550000     -68.30220000
S      -49.05830000     -35.28290000     -69.74530000
S      -48.23860000     -32.62150000     -68.26110000
H      -46.10670000     -31.46950000     -67.79710000
