40
Properties=species:S:1:pos:R:3 #=T CELL(abcABC):=T 1.889726e+02=T 90.00000=T Traj:=T positionsangstrom=T Step:=T 0=T Bead:=T pbc="F F F"
C      -48.09550000     -35.90820000     -72.09550000
C      -46.81620000     -36.21450000     -71.52230000
C      -46.55090000     -35.75590000     -70.24420000
C      -47.57790000     -35.12220000     -69.55380000
C      -48.84020000     -34.78580000     -70.11130000
C      -49.10300000     -35.19930000     -71.40660000
H      -48.42530000     -36.31450000     -73.11690000
H      -45.67150000     -36.08400000     -69.69750000
H      -49.57920000     -34.22910000     -69.54600000
H      -50.11550000     -35.04100000     -71.83950000
C      -47.36820000     -34.84710000     -68.09990000
H      -47.70920000     -35.66650000     -67.43370000
H      -48.04280000     -34.01550000     -67.83350000
C      -45.98980000     -37.22580000     -72.19960000
H      -45.70980000     -38.03640000     -71.49340000
H      -46.37600000     -37.58820000     -73.14760000
S      -45.65760000     -34.50800000     -67.64530000
S      -44.26390000     -36.53570000     -72.51020000
C      -45.30130000     -32.92620000     -68.62490000
H      -46.04260000     -32.19690000     -68.34510000
H      -44.43920000     -32.49540000     -68.05380000
C      -44.56290000     -34.80350000     -73.07850000
H      -45.45970000     -34.51460000     -72.57690000
H      -44.60750000     -34.75310000     -74.18720000
C      -43.34480000     -33.98090000     -72.81740000
H      -42.96660000     -34.11940000     -71.74210000
H      -42.56710000     -34.25910000     -73.48720000
C      -45.06720000     -33.03030000     -70.15310000
H      -45.92030000     -33.54530000     -70.58090000
H      -44.34340000     -33.82440000     -70.23470000
C      -44.80950000     -31.70680000     -70.80090000
C      -45.23620000     -30.50750000     -70.31300000
C      -44.10790000     -31.54640000     -72.02220000
H      -45.75320000     -30.38080000     -69.37620000
C      -44.02130000     -30.23620000     -72.55190000
C      -43.57390000     -32.48690000     -73.03140000
C      -43.07910000     -31.81280000     -74.13320000
S      -44.79440000     -29.11780000     -71.38720000
S      -43.21460000     -30.08000000     -74.07070000
H      -42.37990000     -32.20620000     -74.81890000
