40
Properties=species:S:1:pos:R:3 #=T CELL(abcABC):=T 1.889726e+02=T 90.00000=T Traj:=T positionsangstrom=T Step:=T 0=T Bead:=T pbc="F F F"
C      -46.60790000     -35.15990000     -68.32900000
C      -45.99080000     -35.22620000     -69.60460000
C      -46.46810000     -34.38820000     -70.63790000
C      -47.52670000     -33.51640000     -70.39780000
C      -48.22850000     -33.54230000     -69.18700000
C      -47.72850000     -34.35020000     -68.12380000
H      -46.07370000     -35.62920000     -67.48600000
H      -46.12710000     -34.50590000     -71.63020000
H      -49.12610000     -32.93250000     -68.97680000
H      -48.16030000     -34.30920000     -67.16850000
C      -48.02630000     -32.67160000     -71.57420000
H      -49.10900000     -32.82460000     -71.63220000
H      -47.58190000     -32.81030000     -72.62360000
C      -44.79320000     -36.08810000     -69.90730000
H      -44.91520000     -37.01860000     -69.38400000
H      -44.59580000     -36.18410000     -71.02160000
S      -47.71820000     -30.81000000     -71.27780000
S      -43.33420000     -35.37020000     -68.92050000
C      -46.00840000     -30.74100000     -70.53130000
H      -45.96230000     -29.89890000     -69.83040000
H      -45.83690000     -31.59910000     -69.92120000
C      -43.51260000     -33.56760000     -69.02250000
H      -43.05320000     -33.00610000     -68.13280000
H      -44.62750000     -33.30660000     -69.14890000
C      -42.86050000     -32.92180000     -70.31040000
H      -42.91150000     -31.83240000     -70.28170000
H      -41.71190000     -33.20160000     -70.24210000
C      -44.87770000     -30.49980000     -71.60300000
H      -43.91620000     -30.45680000     -71.07130000
H      -45.01140000     -29.44830000     -71.96970000
C      -44.91450000     -31.49010000     -72.67920000
C      -45.66450000     -31.40790000     -73.80410000
C      -44.15210000     -32.69370000     -72.56290000
H      -46.38780000     -30.60330000     -73.98260000
C      -44.37540000     -33.50780000     -73.65500000
C      -43.41110000     -33.46740000     -71.59270000
C      -43.00890000     -34.70640000     -72.06670000
S      -45.37340000     -32.73450000     -74.90920000
S      -43.75690000     -35.14110000     -73.55160000
H      -42.39620000     -35.47470000     -71.55520000
