40
Properties=species:S:1:pos:R:3 #=T CELL(abcABC):=T 1.889726e+02=T 90.00000=T Traj:=T positionsangstrom=T Step:=T 0=T Bead:=T pbc="F F F"
C      -47.07650000     -34.86410000     -68.26720000
C      -46.38760000     -35.13790000     -69.50220000
C      -46.61950000     -34.42510000     -70.60830000
C      -47.60490000     -33.44970000     -70.56980000
C      -48.32940000     -33.15010000     -69.38210000
C      -48.02190000     -33.83470000     -68.20050000
H      -46.90990000     -35.52290000     -67.39760000
H      -46.16880000     -34.65960000     -71.56550000
H      -49.06790000     -32.30270000     -69.45530000
H      -48.46890000     -33.53130000     -67.29900000
C      -47.79890000     -32.61250000     -71.76810000
H      -48.79920000     -32.50060000     -72.15310000
H      -47.14280000     -32.92620000     -72.53860000
C      -45.25320000     -36.07780000     -69.46000000
H      -45.54570000     -36.88520000     -68.84930000
H      -44.98510000     -36.56100000     -70.41160000
S      -47.52540000     -30.80880000     -71.37680000
S      -43.78300000     -35.57240000     -68.60200000
C      -45.89460000     -30.81330000     -70.49910000
H      -45.93980000     -29.98610000     -69.74740000
H      -45.77880000     -31.82100000     -70.05720000
C      -43.70390000     -33.77730000     -68.96050000
H      -43.10480000     -33.36480000     -68.18090000
H      -44.78160000     -33.47910000     -68.89380000
C      -42.90090000     -33.32280000     -70.21780000
H      -42.92990000     -32.25940000     -70.08540000
H      -41.80960000     -33.58510000     -70.02480000
C      -44.66610000     -30.59220000     -71.46210000
H      -43.74700000     -30.65780000     -70.91350000
H      -44.71440000     -29.54920000     -71.89720000
C      -44.57850000     -31.53670000     -72.61270000
C      -45.27230000     -31.32040000     -73.82330000
C      -44.05340000     -32.85590000     -72.58560000
H      -45.87030000     -30.46940000     -74.01620000
C      -44.18470000     -33.53940000     -73.80450000
C      -43.25690000     -33.64170000     -71.65750000
C      -43.01940000     -34.88550000     -72.13280000
S      -45.12120000     -32.62010000     -74.94200000
S      -43.55920000     -35.07460000     -73.79180000
H      -42.34200000     -35.64460000     -71.76380000
