40
Properties=species:S:1:pos:R:3 #=T CELL(abcABC):=T 1.889726e+02=T 90.00000=T Traj:=T positionsangstrom=T Step:=T 0=T Bead:=T pbc="F F F"
C      -41.83270000     -30.82660000     -71.24420000
C      -42.45630000     -31.83970000     -70.49140000
C      -42.88730000     -32.98340000     -71.13300000
C      -42.51960000     -33.20880000     -72.44940000
C      -41.76400000     -32.27030000     -73.11140000
C      -41.45160000     -31.06700000     -72.49660000
H      -41.60810000     -29.83320000     -70.84360000
H      -43.61070000     -33.68440000     -70.68200000
H      -41.43620000     -32.45370000     -74.10170000
H      -40.90870000     -30.27950000     -73.06680000
C      -43.01350000     -34.46580000     -73.09000000
H      -43.29880000     -35.20320000     -72.31410000
H      -42.26760000     -34.90980000     -73.73050000
C      -42.82970000     -31.52470000     -68.99440000
H      -42.97340000     -32.34820000     -68.38970000
H      -41.97000000     -30.88850000     -68.57500000
S      -44.54770000     -34.05250000     -74.11780000
S      -44.37250000     -30.52720000     -68.70240000
C      -45.21390000     -32.48510000     -73.30650000
H      -44.89480000     -32.41850000     -72.31670000
H      -44.81340000     -31.61640000     -73.90060000
C      -45.49180000     -31.97760000     -68.43280000
H      -46.14520000     -31.72940000     -67.54730000
H      -44.94380000     -32.94020000     -68.32130000
C      -46.35770000     -32.24210000     -69.77670000
H      -47.09740000     -31.46780000     -69.75950000
H      -45.77120000     -32.04860000     -70.69530000
C      -46.75430000     -32.49570000     -73.19680000
H      -47.09210000     -32.50630000     -74.22760000
H      -47.07950000     -31.52100000     -72.70620000
C      -47.39590000     -33.69240000     -72.56820000
C      -47.94360000     -34.66660000     -73.35330000
C      -47.41300000     -34.19850000     -71.17150000
H      -48.04070000     -34.52550000     -74.43020000
C      -48.03580000     -35.42090000     -70.95680000
C      -46.90740000     -33.63680000     -69.93060000
C      -46.93950000     -34.49370000     -68.87280000
S      -48.11150000     -36.19750000     -72.59260000
S      -47.78150000     -36.01980000     -69.33450000
H      -46.69330000     -34.32780000     -67.81030000
