40
Properties=species:S:1:pos:R:3 #=T CELL(abcABC):=T 1.889726e+02=T 90.00000=T Traj:=T positionsangstrom=T Step:=T 0=T Bead:=T pbc="F F F"
C      -48.12450000     -35.94030000     -72.22000000
C      -47.01870000     -36.51310000     -71.57170000
C      -46.75610000     -36.16360000     -70.22330000
C      -47.53820000     -35.15340000     -69.66100000
C      -48.66140000     -34.62700000     -70.31820000
C      -49.03810000     -35.14570000     -71.52790000
H      -48.30950000     -36.12950000     -73.32820000
H      -45.81920000     -36.49720000     -69.70690000
H      -49.32980000     -33.82360000     -69.95190000
H      -49.84390000     -34.70140000     -72.03210000
C      -47.21640000     -34.67410000     -68.22540000
H      -47.58910000     -35.38970000     -67.48590000
H      -47.78060000     -33.77710000     -68.01190000
C      -45.98710000     -37.30410000     -72.38780000
H      -45.99050000     -38.34650000     -72.12240000
H      -46.32550000     -37.32330000     -73.45070000
S      -45.39040000     -34.29620000     -67.69470000
S      -44.30750000     -36.60470000     -72.36350000
C      -45.11280000     -32.69170000     -68.43680000
H      -45.80610000     -31.98010000     -68.12990000
H      -44.03380000     -32.48630000     -68.30070000
C      -44.44900000     -34.97320000     -73.28260000
H      -45.42520000     -34.57670000     -72.85090000
H      -44.67810000     -35.09820000     -74.30620000
C      -43.30810000     -33.99330000     -72.84090000
H      -42.98650000     -34.21470000     -71.84050000
H      -42.40460000     -34.25700000     -73.47860000
C      -45.16840000     -32.97580000     -69.93080000
H      -46.19640000     -33.29620000     -70.19510000
H      -44.31690000     -33.61060000     -70.30700000
C      -45.01330000     -31.68410000     -70.77930000
C      -45.37760000     -30.43110000     -70.36250000
C      -44.29780000     -31.61920000     -72.02300000
H      -45.86840000     -30.15920000     -69.43360000
C      -44.22800000     -30.32030000     -72.52340000
C      -43.59690000     -32.52550000     -72.96600000
C      -42.90950000     -31.81040000     -73.88810000
S      -44.95670000     -29.15770000     -71.46910000
S      -43.16910000     -30.05500000     -73.86360000
H      -42.56470000     -32.31430000     -74.77900000
