40
Properties=species:S:1:pos:R:3 #=T CELL(abcABC):=T 1.889726e+02=T 90.00000=T Traj:=T positionsangstrom=T Step:=T 0=T Bead:=T pbc="F F F"
C      -47.92900000     -34.62030000     -68.69890000
C      -47.02500000     -34.84610000     -69.71770000
C      -46.84680000     -33.88380000     -70.71280000
C      -47.72860000     -32.72450000     -70.84180000
C      -48.66910000     -32.57700000     -69.77630000
C      -48.80570000     -33.52990000     -68.82640000
H      -48.17710000     -35.32850000     -67.89300000
H      -46.33710000     -34.00910000     -71.63660000
H      -49.39440000     -31.75350000     -69.88270000
H      -49.67300000     -33.36830000     -68.17240000
C      -47.52240000     -31.66200000     -71.83770000
H      -48.50440000     -31.22890000     -72.11640000
H      -47.00900000     -32.08740000     -72.74630000
C      -46.13140000     -36.10040000     -69.70280000
H      -46.64100000     -36.96160000     -69.26760000
H      -45.66930000     -36.22450000     -70.70520000
S      -46.67010000     -30.13050000     -71.25790000
S      -44.45000000     -35.89440000     -68.76770000
C      -44.96870000     -30.53440000     -70.43050000
H      -44.74930000     -29.60510000     -69.82620000
H      -45.14890000     -31.40280000     -69.80950000
C      -43.91710000     -34.09440000     -68.82970000
H      -43.35870000     -33.85020000     -67.98270000
H      -44.80690000     -33.42540000     -68.87250000
C      -42.97910000     -33.69180000     -69.93290000
H      -42.73610000     -32.62670000     -69.79400000
H      -41.98290000     -34.23550000     -69.74900000
C      -43.94040000     -30.68060000     -71.51410000
H      -42.90850000     -30.97650000     -71.17840000
H      -43.75930000     -29.67350000     -72.01830000
C      -44.21290000     -31.85090000     -72.48970000
C      -44.63950000     -31.53720000     -73.74760000
C      -43.92120000     -33.25390000     -72.31350000
H      -45.01740000     -30.51710000     -74.05170000
C      -44.27700000     -33.93120000     -73.55290000
C      -43.31730000     -34.10620000     -71.32060000
C      -43.00500000     -35.33510000     -71.90450000
S      -44.83980000     -32.86690000     -74.83700000
S      -43.56640000     -35.58520000     -73.55130000
H      -42.47830000     -36.12640000     -71.46760000
