40
Properties=species:S:1:pos:R:3 #=T CELL(abcABC):=T 1.889726e+02=T 90.00000=T Traj:=T positionsangstrom=T Step:=T 0=T Bead:=T pbc="F F F"
C      -44.90170000     -35.14820000     -74.73340000
C      -44.66660000     -33.79080000     -74.51470000
C      -43.54470000     -33.40140000     -73.76630000
C      -42.63300000     -34.32970000     -73.17470000
C      -42.80590000     -35.67490000     -73.54630000
C      -43.93650000     -36.06540000     -74.26720000
H      -45.89590000     -35.41660000     -75.28250000
H      -43.42470000     -32.36640000     -73.58420000
H      -42.18690000     -36.47620000     -73.27970000
H      -44.15540000     -37.14800000     -74.37630000
C      -41.53760000     -33.89370000     -72.25930000
H      -40.68660000     -33.50320000     -72.79260000
H      -41.07070000     -34.83340000     -71.86780000
C      -45.64650000     -32.76250000     -75.08140000
H      -45.28300000     -32.30190000     -75.99060000
H      -46.60620000     -33.19300000     -75.32430000
S      -41.80680000     -32.55750000     -70.99600000
S      -45.80900000     -31.13290000     -74.18720000
C      -42.82780000     -33.12680000     -69.61940000
H      -42.18050000     -33.86540000     -69.09060000
H      -43.14730000     -32.20630000     -69.06850000
C      -46.69320000     -31.50810000     -72.61690000
H      -47.69560000     -31.14160000     -72.69930000
H      -46.19650000     -31.09930000     -71.67920000
C      -46.80490000     -32.98050000     -72.25070000
H      -47.59000000     -33.50620000     -72.89220000
H      -45.92160000     -33.55060000     -72.33000000
C      -44.07960000     -33.94290000     -70.13920000
H      -43.77820000     -34.91950000     -70.45340000
H      -44.57590000     -33.53320000     -71.05040000
C      -45.26730000     -33.84840000     -69.16760000
C      -45.19320000     -34.11600000     -67.86020000
C      -46.60120000     -33.48720000     -69.58560000
H      -44.25500000     -34.38410000     -67.26430000
C      -47.48450000     -33.63260000     -68.53660000
C      -47.24550000     -33.09520000     -70.84420000
C      -48.58540000     -32.87990000     -70.63620000
S      -46.72420000     -33.87690000     -67.00300000
S      -49.15340000     -33.24780000     -69.02330000
H      -49.28540000     -32.49020000     -71.32920000
