40
Properties=species:S:1:pos:R:3 #=T CELL(abcABC):=T 1.889726e+02=T 90.00000=T Traj:=T positionsangstrom=T Step:=T 0=T Bead:=T pbc="F F F"
C      -47.84620000     -36.55750000     -71.80330000
C      -47.79290000     -35.45200000     -72.69880000
C      -46.58300000     -35.15300000     -73.38890000
C      -45.40070000     -35.94560000     -73.31880000
C      -45.56230000     -37.10160000     -72.57030000
C      -46.70510000     -37.37290000     -71.77170000
H      -48.70220000     -36.80860000     -71.20270000
H      -46.59950000     -34.21950000     -73.94500000
H      -44.71960000     -37.87180000     -72.59600000
H      -46.77230000     -38.29920000     -71.26130000
C      -44.12330000     -35.60620000     -74.01040000
H      -44.24550000     -35.12940000     -74.95350000
H      -43.54280000     -36.55090000     -74.30790000
C      -48.91430000     -34.46090000     -72.84880000
H      -48.65880000     -33.68540000     -73.57470000
H      -49.89850000     -34.99140000     -73.04360000
S      -42.97370000     -34.53600000     -72.96100000
S      -49.30860000     -33.69280000     -71.18020000
C      -43.14470000     -35.22940000     -71.16520000
H      -43.44120000     -36.33490000     -71.23360000
H      -42.12130000     -35.18730000     -70.79640000
C      -47.75410000     -33.18430000     -70.41800000
H      -47.11340000     -34.07070000     -70.14640000
H      -47.90980000     -32.64130000     -69.55460000
C      -46.95660000     -32.26930000     -71.32820000
H      -46.54500000     -32.85030000     -72.20220000
H      -47.66960000     -31.51370000     -71.70220000
C      -44.07520000     -34.49960000     -70.25570000
H      -44.02760000     -34.81500000     -69.23080000
H      -45.09240000     -34.50560000     -70.60410000
C      -43.67570000     -33.02510000     -70.06150000
C      -42.34590000     -32.74940000     -69.73560000
C      -44.49710000     -31.82880000     -70.23040000
H      -41.53260000     -33.30640000     -69.40010000
C      -43.75430000     -30.70510000     -69.80570000
C      -45.81180000     -31.46450000     -70.66520000
C      -46.08440000     -30.15360000     -70.47580000
S      -42.02490000     -30.98950000     -69.63670000
S      -44.54610000     -29.18060000     -70.00330000
H      -46.97850000     -29.55640000     -70.85010000
