40
Properties=species:S:1:pos:R:3 #=T CELL(abcABC):=T 1.889726e+02=T 90.00000=T Traj:=T positionsangstrom=T Step:=T 0=T Bead:=T pbc="F F F"
C      -48.70930000     -33.86850000     -69.31970000
C      -47.57920000     -34.31300000     -70.10750000
C      -47.13460000     -33.50410000     -71.17700000
C      -47.80570000     -32.27610000     -71.41200000
C      -48.89510000     -31.85370000     -70.70650000
C      -49.37260000     -32.65100000     -69.63360000
H      -49.06150000     -34.47410000     -68.53300000
H      -46.47550000     -33.89350000     -71.96330000
H      -49.44610000     -30.93280000     -70.89390000
H      -50.18900000     -32.34290000     -69.00970000
C      -47.24600000     -31.39560000     -72.46980000
H      -47.88310000     -31.05440000     -73.29900000
H      -46.51630000     -31.89930000     -73.09210000
C      -46.91510000     -35.63720000     -69.91780000
H      -47.63300000     -36.41120000     -69.77580000
H      -46.38660000     -35.99860000     -70.81960000
S      -46.46180000     -30.01970000     -71.61930000
S      -45.65540000     -35.57020000     -68.57770000
C      -45.25600000     -30.81220000     -70.47800000
H      -45.05210000     -30.05480000     -69.72490000
H      -45.67550000     -31.75950000     -70.10970000
C      -44.61670000     -34.06470000     -68.82140000
H      -44.53030000     -33.53630000     -67.90280000
H      -45.23230000     -33.35510000     -69.40240000
C      -43.16610000     -34.02730000     -69.47940000
H      -42.93350000     -32.97290000     -69.59140000
H      -42.52060000     -34.51270000     -68.75250000
C      -43.91120000     -31.03720000     -71.15370000
H      -43.33450000     -31.34720000     -70.32620000
H      -43.61600000     -30.05190000     -71.59920000
C      -43.82870000     -32.23400000     -72.15380000
C      -44.18400000     -31.96400000     -73.49050000
C      -43.42880000     -33.63400000     -71.94540000
H      -44.22950000     -30.98360000     -74.01800000
C      -43.37430000     -34.29980000     -73.19080000
C      -43.09210000     -34.50620000     -70.88860000
C      -42.72870000     -35.81440000     -71.30950000
S      -43.81900000     -33.38650000     -74.53200000
S      -42.91560000     -35.93920000     -73.04860000
H      -42.32270000     -36.57200000     -70.67210000
