40
Properties=species:S:1:pos:R:3 #=T CELL(abcABC):=T 1.889726e+02=T 90.00000=T Traj:=T positionsangstrom=T Step:=T 0=T Bead:=T pbc="F F F"
C      -44.55600000     -35.59590000     -75.04240000
C      -44.60280000     -34.24850000     -74.57570000
C      -43.62590000     -33.88580000     -73.64840000
C      -42.60400000     -34.76880000     -73.24310000
C      -42.55100000     -36.08440000     -73.72730000
C      -43.57720000     -36.46730000     -74.59670000
H      -45.28480000     -35.78300000     -75.81460000
H      -43.73610000     -32.91800000     -73.23700000
H      -41.72490000     -36.74360000     -73.36020000
H      -43.58150000     -37.56130000     -74.91310000
C      -41.46990000     -34.25820000     -72.36570000
H      -40.70270000     -33.79890000     -72.97220000
H      -40.99910000     -35.04520000     -71.86010000
C      -45.67250000     -33.32230000     -75.17180000
H      -45.25410000     -33.01670000     -76.10790000
H      -46.69040000     -33.77670000     -75.31210000
S      -41.77980000     -32.87230000     -71.05540000
S      -45.82540000     -31.62650000     -74.36180000
C      -42.85310000     -33.63450000     -69.78640000
H      -42.52210000     -34.68920000     -69.64520000
H      -42.67440000     -33.10760000     -68.80400000
C      -46.69320000     -31.50150000     -72.74640000
H      -47.68410000     -31.10540000     -72.87740000
H      -46.12310000     -30.82120000     -72.04060000
C      -46.88230000     -32.86100000     -72.06460000
H      -47.57940000     -33.38900000     -72.60820000
H      -45.98650000     -33.46650000     -72.07350000
C      -44.30900000     -33.48280000     -70.18220000
H      -44.62820000     -34.36170000     -70.75920000
H      -44.34750000     -32.68480000     -70.96470000
C      -45.41800000     -33.32630000     -69.09640000
C      -45.17560000     -33.49970000     -67.78960000
C      -46.75530000     -33.14860000     -69.45160000
H      -44.31940000     -33.72320000     -67.23040000
C      -47.55920000     -33.11910000     -68.32720000
C      -47.47010000     -32.86040000     -70.67620000
C      -48.77620000     -32.59710000     -70.45570000
S      -46.67900000     -33.36120000     -66.90140000
S      -49.18960000     -32.51410000     -68.71910000
H      -49.57770000     -32.31610000     -71.09750000
