40
Properties=species:S:1:pos:R:3 #=T CELL(abcABC):=T 1.889726e+02=T 90.00000=T Traj:=T positionsangstrom=T Step:=T 0=T Bead:=T pbc="F F F"
C      -48.65830000     -34.01030000     -69.64150000
C      -47.52980000     -34.33680000     -70.47330000
C      -47.07830000     -33.46260000     -71.48420000
C      -47.73890000     -32.20740000     -71.63180000
C      -48.79500000     -31.82170000     -70.72340000
C      -49.24350000     -32.74260000     -69.75000000
H      -48.87270000     -34.67260000     -68.85940000
H      -46.32460000     -33.70850000     -72.18690000
H      -49.14320000     -30.79350000     -70.86290000
H      -50.09510000     -32.58750000     -69.10590000
C      -47.27390000     -31.29300000     -72.76110000
H      -48.13730000     -30.91540000     -73.30650000
H      -46.70240000     -31.97260000     -73.42380000
C      -46.80820000     -35.62500000     -70.24480000
H      -47.56940000     -36.46090000     -70.00950000
H      -46.18600000     -35.87360000     -71.12490000
S      -46.07700000     -29.86990000     -72.26650000
S      -45.88040000     -35.64410000     -68.56790000
C      -45.10880000     -30.54620000     -70.76660000
H      -45.07520000     -29.74910000     -70.04700000
H      -45.81270000     -31.28440000     -70.32430000
C      -44.97640000     -34.01920000     -68.63330000
H      -44.98210000     -33.58860000     -67.60650000
H      -45.57350000     -33.41060000     -69.40690000
C      -43.49470000     -34.00890000     -69.08260000
H      -43.21850000     -33.01960000     -69.17060000
H      -42.81350000     -34.63730000     -68.43640000
C      -43.68690000     -31.07410000     -70.99270000
H      -43.27340000     -31.42760000     -70.05750000
H      -43.03010000     -30.25290000     -71.43880000
C      -43.56000000     -32.23360000     -71.96830000
C      -43.44590000     -31.95920000     -73.31000000
C      -43.36890000     -33.66030000     -71.68760000
H      -43.49460000     -30.93190000     -73.68320000
C      -43.43280000     -34.34210000     -72.88090000
C      -43.42790000     -34.52190000     -70.55790000
C      -43.40480000     -35.86590000     -70.93020000
S      -43.46730000     -33.39280000     -74.31020000
S      -43.48920000     -36.07520000     -72.68860000
H      -43.27610000     -36.69060000     -70.27300000
