40
Properties=species:S:1:pos:R:3 #=T CELL(abcABC):=T 1.889726e+02=T 90.00000=T Traj:=T positionsangstrom=T Step:=T 0=T Bead:=T pbc="F F F"
C      -48.73090000     -33.73360000     -69.80200000
C      -47.62610000     -34.27710000     -70.48380000
C      -47.11160000     -33.67100000     -71.65320000
C      -47.52920000     -32.32930000     -71.97740000
C      -48.58370000     -31.77510000     -71.25870000
C      -49.18840000     -32.46960000     -70.16940000
H      -49.05510000     -34.33940000     -68.85860000
H      -46.25160000     -34.08270000     -72.25660000
H      -48.93670000     -30.79620000     -71.50180000
H      -49.94630000     -31.83430000     -69.67400000
C      -46.76580000     -31.51690000     -72.93860000
H      -47.32710000     -30.97970000     -73.69870000
H      -46.03740000     -32.06210000     -73.57550000
C      -47.10110000     -35.56030000     -70.08230000
H      -47.87680000     -36.31820000     -70.08340000
H      -46.26890000     -35.93890000     -70.78710000
S      -45.87610000     -30.04160000     -72.17520000
S      -46.16830000     -35.69760000     -68.43670000
C      -45.09250000     -30.76720000     -70.67120000
H      -45.09980000     -29.92580000     -69.96320000
H      -45.69450000     -31.56450000     -70.30670000
C      -45.25490000     -34.10910000     -68.39210000
H      -45.12830000     -33.86530000     -67.31800000
H      -45.90370000     -33.27280000     -68.76570000
C      -43.82910000     -33.97990000     -69.03780000
H      -43.60790000     -32.83570000     -69.01850000
H      -43.06720000     -34.42880000     -68.41240000
C      -43.60610000     -31.02310000     -70.96610000
H      -42.95780000     -31.13720000     -70.05270000
H      -43.18270000     -30.14220000     -71.39160000
C      -43.47590000     -32.14420000     -71.92130000
C      -43.28670000     -31.88370000     -73.26820000
C      -43.56030000     -33.58870000     -71.68390000
H      -43.13440000     -30.88970000     -73.68180000
C      -43.41200000     -34.33420000     -72.90120000
C      -43.59120000     -34.42170000     -70.49690000
C      -43.55330000     -35.75970000     -70.83060000
S      -43.32910000     -33.32150000     -74.28820000
S      -43.45650000     -36.09570000     -72.54780000
H      -43.60710000     -36.61980000     -70.14620000
