40
Properties=species:S:1:pos:R:3 #=T CELL(abcABC):=T 1.889726e+02=T 90.00000=T Traj:=T positionsangstrom=T Step:=T 0=T Bead:=T pbc="F F F"
C      -48.90090000     -33.74170000     -70.00850000
C      -47.71930000     -34.24030000     -70.51090000
C      -46.90670000     -33.64350000     -71.48500000
C      -47.26610000     -32.30470000     -71.80200000
C      -48.44620000     -31.75330000     -71.24410000
C      -49.27540000     -32.42560000     -70.35790000
H      -49.49730000     -34.42820000     -69.32160000
H      -46.07500000     -34.28430000     -71.96170000
H      -48.77020000     -30.77340000     -71.59300000
H      -50.22930000     -31.97840000     -70.10480000
C      -46.53860000     -31.58180000     -72.90910000
H      -47.20740000     -31.32450000     -73.80900000
H      -45.82330000     -32.30580000     -73.27680000
C      -47.34880000     -35.64160000     -69.98750000
H      -48.26700000     -36.07580000     -69.70020000
H      -46.81950000     -36.20780000     -70.78390000
S      -45.84970000     -30.06440000     -72.20910000
S      -46.34650000     -35.51330000     -68.47600000
C      -45.05260000     -30.57370000     -70.65410000
H      -45.06030000     -29.75160000     -69.97410000
H      -45.60270000     -31.44420000     -70.17240000
C      -45.44830000     -33.94920000     -68.59890000
H      -45.53350000     -33.59830000     -67.54630000
H      -45.95010000     -33.27870000     -69.29630000
C      -43.95180000     -34.14970000     -68.99870000
H      -43.37850000     -33.29840000     -68.67150000
H      -43.54820000     -34.99700000     -68.50480000
C      -43.54950000     -31.02250000     -70.96220000
H      -43.09710000     -31.38970000     -70.01350000
H      -43.00930000     -30.20820000     -71.39940000
C      -43.45990000     -32.19670000     -71.93740000
C      -43.23140000     -31.95600000     -73.25990000
C      -43.47240000     -33.61100000     -71.63330000
H      -43.10010000     -31.01630000     -73.75120000
C      -43.25190000     -34.33760000     -72.75960000
C      -43.73290000     -34.48500000     -70.49830000
C      -43.73830000     -35.80350000     -70.83890000
S      -43.20040000     -33.40060000     -74.21630000
S      -43.38110000     -36.08680000     -72.56090000
H      -43.86720000     -36.70660000     -70.20430000
