40
Properties=species:S:1:pos:R:3 #=T CELL(abcABC):=T 1.889726e+02=T 90.00000=T Traj:=T positionsangstrom=T Step:=T 0=T Bead:=T pbc="F F F"
C      -49.25560000     -32.84580000     -70.81070000
C      -48.20610000     -33.68540000     -71.29190000
C      -47.24730000     -33.17010000     -72.15780000
C      -47.31320000     -31.79160000     -72.54300000
C      -48.35280000     -30.97590000     -72.06420000
C      -49.29210000     -31.51690000     -71.12320000
H      -49.92180000     -33.24750000     -70.05000000
H      -46.43220000     -33.73520000     -72.51280000
H      -48.40450000     -29.98760000     -72.36630000
H      -49.99050000     -30.95070000     -70.59360000
C      -46.07870000     -31.19420000     -73.29180000
H      -46.45160000     -30.64220000     -74.16970000
H      -45.41300000     -31.96170000     -73.70980000
C      -48.02190000     -35.07900000     -70.80240000
H      -49.05790000     -35.50690000     -70.82800000
H      -47.35670000     -35.73190000     -71.41680000
S      -45.02740000     -29.98260000     -72.24030000
S      -47.38100000     -35.20230000     -68.98010000
C      -44.80680000     -30.69470000     -70.53990000
H      -44.78900000     -29.78630000     -69.86590000
H      -45.60190000     -31.28910000     -70.26060000
C      -46.06090000     -33.96470000     -68.78670000
H      -46.31240000     -33.42300000     -67.89540000
H      -46.19100000     -33.26120000     -69.55970000
C      -44.62910000     -34.49390000     -68.84840000
H      -44.00550000     -33.69040000     -68.38430000
H      -44.51940000     -35.33290000     -68.17560000
C      -43.42920000     -31.48830000     -70.40300000
H      -43.47110000     -31.74850000     -69.35480000
H      -42.70370000     -30.71910000     -70.56130000
C      -43.23930000     -32.69780000     -71.32300000
C      -42.42950000     -32.48360000     -72.41150000
C      -43.54340000     -34.07610000     -71.18350000
H      -41.86580000     -31.69730000     -72.87010000
C      -43.08320000     -34.81060000     -72.23590000
C      -44.12400000     -34.89680000     -70.13590000
C      -44.14460000     -36.21580000     -70.47540000
S      -42.14070000     -33.94010000     -73.36000000
S      -43.42220000     -36.54940000     -72.06850000
H      -44.56790000     -36.89780000     -69.77650000
