40
Properties=species:S:1:pos:R:3 #=T CELL(abcABC):=T 1.889726e+02=T 90.00000=T Traj:=T positionsangstrom=T Step:=T 0=T Bead:=T pbc="F F F"
C      -49.32790000     -32.81280000     -71.15250000
C      -48.26610000     -33.63320000     -71.46350000
C      -47.05520000     -33.10330000     -72.00030000
C      -47.01770000     -31.80210000     -72.48030000
C      -48.14010000     -30.96240000     -72.17520000
C      -49.23980000     -31.42750000     -71.44760000
H      -50.25930000     -33.16550000     -70.66920000
H      -46.20530000     -33.79890000     -72.13230000
H      -48.07720000     -29.95360000     -72.41830000
H      -50.00150000     -30.73150000     -71.12560000
C      -45.71700000     -31.28490000     -73.07680000
H      -45.73930000     -30.89320000     -74.16370000
H      -44.96560000     -32.07850000     -73.13050000
C      -48.17490000     -35.03840000     -70.90760000
H      -49.07270000     -35.62380000     -71.02070000
H      -47.41190000     -35.54160000     -71.51480000
S      -44.96610000     -30.00170000     -72.08640000
S      -47.67200000     -35.17700000     -69.15450000
C      -44.73450000     -30.86080000     -70.46650000
H      -44.73710000     -30.05930000     -69.68990000
H      -45.61150000     -31.49230000     -70.19680000
C      -46.36900000     -33.87190000     -68.96780000
H      -46.48140000     -33.58090000     -67.90170000
H      -46.46850000     -33.02450000     -69.76880000
C      -44.84600000     -34.35280000     -68.88220000
H      -44.22380000     -33.60820000     -68.45860000
H      -44.83880000     -35.13850000     -68.07870000
C      -43.41240000     -31.53100000     -70.28650000
H      -43.35110000     -31.89790000     -69.21000000
H      -42.48300000     -30.88270000     -70.28670000
C      -43.15340000     -32.70640000     -71.21740000
C      -42.40050000     -32.46790000     -72.37020000
C      -43.47150000     -34.08600000     -71.07960000
H      -42.13460000     -31.56020000     -72.93750000
C      -42.90510000     -34.87140000     -72.11750000
C      -44.17990000     -34.90940000     -70.09470000
C      -44.11700000     -36.24860000     -70.44650000
S      -42.30280000     -33.95810000     -73.39520000
S      -43.31670000     -36.56540000     -71.92990000
H      -44.58000000     -37.00760000     -69.84190000
