40
Properties=species:S:1:pos:R:3 #=T CELL(abcABC):=T 1.889726e+02=T 90.00000=T Traj:=T positionsangstrom=T Step:=T 0=T Bead:=T pbc="F F F"
C      -49.16860000     -32.75000000     -71.86710000
C      -47.93620000     -33.57810000     -71.86470000
C      -46.78230000     -33.00210000     -72.25140000
C      -46.72160000     -31.69820000     -72.76480000
C      -47.88450000     -30.94430000     -72.77240000
C      -49.09470000     -31.43090000     -72.27260000
H      -50.10410000     -33.13160000     -71.55130000
H      -45.81930000     -33.62370000     -72.33760000
H      -47.79710000     -29.97170000     -73.13310000
H      -50.05520000     -30.93380000     -72.26370000
C      -45.40660000     -31.11440000     -73.22620000
H      -45.56340000     -30.44430000     -74.10160000
H      -44.68420000     -31.85690000     -73.60020000
C      -48.07130000     -35.00100000     -71.31770000
H      -49.15490000     -35.32390000     -71.32090000
H      -47.45970000     -35.77720000     -71.95700000
S      -44.60280000     -29.86480000     -72.03040000
S      -47.64920000     -35.28880000     -69.47240000
C      -44.72890000     -30.74290000     -70.36810000
H      -44.89150000     -29.96980000     -69.62750000
H      -45.62810000     -31.45780000     -70.39060000
C      -46.62890000     -33.87890000     -68.93640000
H      -47.00850000     -33.54260000     -68.02020000
H      -46.70440000     -33.05240000     -69.64720000
C      -45.20980000     -34.37020000     -68.56480000
H      -44.64040000     -33.57010000     -68.03580000
H      -45.34400000     -35.19390000     -67.81890000
C      -43.43840000     -31.50540000     -69.97640000
H      -43.66300000     -31.92870000     -69.05350000
H      -42.55870000     -30.90960000     -70.04790000
C      -43.07020000     -32.70570000     -70.86480000
C      -42.27080000     -32.65260000     -71.98030000
C      -43.57740000     -34.14230000     -70.71500000
H      -41.48060000     -31.94920000     -72.28580000
C      -43.22590000     -34.96150000     -71.81180000
C      -44.44550000     -34.86770000     -69.80910000
C      -44.63200000     -36.14480000     -70.17660000
S      -42.16110000     -34.16380000     -72.97700000
S      -43.89710000     -36.58200000     -71.67480000
H      -45.20460000     -36.84820000     -69.63000000
