40
Properties=species:S:1:pos:R:3 #=T CELL(abcABC):=T 1.889726e+02=T 90.00000=T Traj:=T positionsangstrom=T Step:=T 0=T Bead:=T pbc="F F F"
C      -41.40350000     -31.70820000     -71.64200000
C      -42.00240000     -32.98890000     -71.76920000
C      -42.77680000     -33.30790000     -72.85240000
C      -42.90360000     -32.39020000     -73.88630000
C      -42.33930000     -31.12860000     -73.86150000
C      -41.56290000     -30.82450000     -72.77790000
H      -40.80250000     -31.36320000     -70.82700000
H      -43.44550000     -34.22250000     -72.88540000
H      -42.43720000     -30.45290000     -74.74310000
H      -41.08860000     -29.90660000     -72.57750000
C      -43.81410000     -32.76610000     -75.01820000
H      -43.27670000     -33.53300000     -75.59000000
H      -43.99000000     -31.93530000     -75.66010000
C      -41.86740000     -33.94920000     -70.53810000
H      -42.34300000     -34.89630000     -70.72820000
H      -40.82820000     -34.22340000     -70.36990000
S      -45.45120000     -33.41060000     -74.42480000
S      -42.46700000     -33.10340000     -69.01880000
C      -46.05990000     -31.94590000     -73.57820000
H      -45.32480000     -31.13110000     -73.69910000
H      -47.05440000     -31.61380000     -73.98050000
C      -44.14710000     -33.86720000     -68.85970000
H      -44.24220000     -34.47770000     -67.95070000
H      -44.31050000     -34.43180000     -69.74640000
C      -45.28580000     -32.80910000     -68.83300000
H      -45.27020000     -32.41500000     -67.80390000
H      -45.23480000     -32.04730000     -69.58990000
C      -46.22080000     -32.21840000     -71.99680000
H      -46.46690000     -31.19880000     -71.61580000
H      -45.25050000     -32.57150000     -71.65750000
C      -47.23160000     -33.20860000     -71.60450000
C      -48.28850000     -33.69080000     -72.41240000
C      -47.34460000     -33.71930000     -70.27100000
H      -48.25730000     -33.44180000     -73.44240000
C      -48.40020000     -34.62720000     -70.09180000
C      -46.59070000     -33.61400000     -69.04770000
C      -47.02550000     -34.44760000     -68.05880000
S      -49.31750000     -34.84940000     -71.57600000
S      -48.44140000     -35.42560000     -68.57830000
H      -46.69420000     -34.48220000     -67.04920000
