40
Properties=species:S:1:pos:R:3 #=T CELL(abcABC):=T 1.889726e+02=T 90.00000=T Traj:=T positionsangstrom=T Step:=T 0=T Bead:=T pbc="F F F"
C      -47.70520000     -35.32010000     -72.26190000
C      -46.85870000     -36.20560000     -71.59380000
C      -46.69410000     -36.14770000     -70.20990000
C      -47.49290000     -35.29410000     -69.43980000
C      -48.49070000     -34.51160000     -70.13550000
C      -48.52690000     -34.52060000     -71.48600000
H      -47.70140000     -35.09990000     -73.38500000
H      -45.94150000     -36.79780000     -69.67680000
H      -49.22780000     -33.93040000     -69.57160000
H      -49.13510000     -33.85750000     -72.01760000
C      -47.27810000     -35.15360000     -67.91150000
H      -47.52930000     -36.09690000     -67.36160000
H      -47.92580000     -34.34640000     -67.51970000
C      -45.99180000     -37.07850000     -72.48950000
H      -46.06060000     -38.12290000     -72.26900000
H      -46.41610000     -36.87730000     -73.49390000
S      -45.58050000     -34.47450000     -67.68130000
S      -44.16190000     -36.63010000     -72.60690000
C      -45.55950000     -32.81420000     -68.48480000
H      -46.55260000     -32.31240000     -68.28210000
H      -44.60130000     -32.28750000     -68.07090000
C      -44.21220000     -34.85570000     -73.19790000
H      -45.29770000     -34.51330000     -73.03140000
H      -43.93200000     -34.82710000     -74.24000000
C      -43.26200000     -34.00320000     -72.28250000
H      -43.45560000     -34.15510000     -71.23360000
H      -42.31380000     -34.39930000     -72.59970000
C      -45.15510000     -32.90050000     -69.99170000
H      -45.72910000     -33.65980000     -70.50040000
H      -44.10590000     -33.23280000     -69.87900000
C      -45.04460000     -31.59220000     -70.76270000
C      -45.52350000     -30.33030000     -70.43750000
C      -44.20780000     -31.60470000     -71.93260000
H      -46.08800000     -29.97430000     -69.59070000
C      -44.29530000     -30.35760000     -72.60100000
C      -43.30560000     -32.51290000     -72.57800000
C      -42.76290000     -31.96640000     -73.72470000
S      -45.26520000     -29.21890000     -71.72890000
S      -43.39000000     -30.33870000     -74.07220000
H      -42.09510000     -32.44310000     -74.40030000
