40
Properties=species:S:1:pos:R:3 #=T CELL(abcABC):=T 1.889726e+02=T 90.00000=T Traj:=T positionsangstrom=T Step:=T 0=T Bead:=T pbc="F F F"
C      -41.08620000     -31.65190000     -71.68240000
C      -41.72100000     -32.90940000     -71.73160000
C      -42.73290000     -33.07380000     -72.65070000
C      -43.01300000     -32.06440000     -73.64280000
C      -42.44080000     -30.83690000     -73.46560000
C      -41.46890000     -30.59510000     -72.50030000
H      -40.28760000     -31.58880000     -70.98990000
H      -43.35350000     -33.96900000     -72.67750000
H      -42.74000000     -29.98930000     -74.01470000
H      -41.14310000     -29.52620000     -72.36200000
C      -43.96740000     -32.21410000     -74.89570000
H      -43.56730000     -32.92720000     -75.59720000
H      -44.10790000     -31.22750000     -75.39760000
C      -41.40220000     -34.00940000     -70.76310000
H      -41.48950000     -35.00270000     -71.21170000
H      -40.29870000     -33.94460000     -70.45900000
S      -45.60410000     -32.94070000     -74.71270000
S      -42.33380000     -33.90020000     -69.13240000
C      -46.35330000     -31.83250000     -73.43440000
H      -45.96190000     -30.84020000     -73.35690000
H      -47.41050000     -31.81250000     -73.73530000
C      -44.01600000     -34.39540000     -69.73720000
H      -44.16460000     -35.44880000     -69.51240000
H      -44.17840000     -34.24420000     -70.84200000
C      -45.02140000     -33.43580000     -69.00960000
H      -44.72390000     -33.54540000     -67.96410000
H      -44.93920000     -32.40600000     -69.31830000
C      -46.18120000     -32.43490000     -72.04150000
H      -46.20230000     -31.58580000     -71.29410000
H      -45.19960000     -32.89330000     -71.94950000
C      -47.28760000     -33.32640000     -71.59920000
C      -48.42740000     -33.62940000     -72.30630000
C      -47.29390000     -33.92400000     -70.27500000
H      -48.75570000     -33.20630000     -73.29020000
C      -48.45490000     -34.63490000     -70.06870000
C      -46.43900000     -33.91920000     -69.07540000
C      -46.96450000     -34.58270000     -68.03320000
S      -49.55060000     -34.62450000     -71.37820000
S      -48.60360000     -35.20610000     -68.40730000
H      -46.42450000     -34.84200000     -67.12860000
