40
Properties=species:S:1:pos:R:3 #=T CELL(abcABC):=T 1.889726e+02=T 90.00000=T Traj:=T positionsangstrom=T Step:=T 0=T Bead:=T pbc="F F F"
C      -41.59990000     -31.80970000     -71.35960000
C      -41.87570000     -33.02380000     -71.94750000
C      -42.43700000     -33.02540000     -73.26090000
C      -42.89580000     -31.89960000     -73.88810000
C      -42.52180000     -30.69540000     -73.23010000
C      -41.84880000     -30.64860000     -72.04460000
H      -41.12420000     -31.81400000     -70.36290000
H      -42.56200000     -34.01540000     -73.80030000
H      -42.88180000     -29.74540000     -73.76670000
H      -41.53880000     -29.75020000     -71.61950000
C      -43.86330000     -31.94580000     -75.05170000
H      -43.49270000     -32.51350000     -75.91670000
H      -44.06210000     -31.00140000     -75.52280000
C      -41.61300000     -34.33200000     -71.11430000
H      -42.03690000     -35.27590000     -71.59450000
H      -40.57290000     -34.64810000     -71.06210000
S      -45.34950000     -32.75780000     -74.46860000
S      -42.30160000     -34.22380000     -69.42190000
C      -46.13390000     -31.62170000     -73.26830000
H      -45.51610000     -30.71060000     -73.34160000
H      -47.11620000     -31.32600000     -73.65400000
C      -44.00760000     -34.66350000     -69.78930000
H      -44.18700000     -35.68810000     -69.46880000
H      -44.28280000     -34.49590000     -70.77690000
C      -44.93950000     -33.77490000     -68.83720000
H      -44.60850000     -34.00120000     -67.85490000
H      -44.77510000     -32.66050000     -68.98140000
C      -46.19940000     -32.13110000     -71.87050000
H      -46.08000000     -31.33220000     -71.10510000
H      -45.27840000     -32.75920000     -71.78720000
C      -47.28880000     -33.01930000     -71.38150000
C      -48.47390000     -33.18420000     -72.08270000
C      -47.31180000     -33.74670000     -70.14810000
H      -48.61980000     -32.83880000     -73.07410000
C      -48.54360000     -34.47380000     -69.97880000
C      -46.39030000     -34.13450000     -69.06490000
C      -46.89960000     -35.04600000     -68.19440000
S      -49.63130000     -34.26710000     -71.32200000
S      -48.59320000     -35.50300000     -68.56910000
H      -46.28070000     -35.37500000     -67.37250000
