40
Properties=species:S:1:pos:R:3 #=T CELL(abcABC):=T 1.889726e+02=T 90.00000=T Traj:=T positionsangstrom=T Step:=T 0=T Bead:=T pbc="F F F"
C      -41.62760000     -32.02720000     -71.23600000
C      -41.98000000     -33.28210000     -71.76890000
C      -42.84490000     -33.27520000     -72.87610000
C      -43.19860000     -32.11350000     -73.55690000
C      -42.71710000     -30.89160000     -73.09250000
C      -41.99790000     -30.84560000     -71.91560000
H      -40.98270000     -32.00240000     -70.29780000
H      -43.15870000     -34.16310000     -73.44410000
H      -42.96260000     -29.92710000     -73.52390000
H      -41.62520000     -29.92080000     -71.58110000
C      -44.09290000     -32.06770000     -74.74470000
H      -44.13150000     -33.08110000     -75.17010000
H      -43.70770000     -31.44050000     -75.52610000
C      -41.37990000     -34.52090000     -71.16420000
H      -41.34810000     -35.34850000     -71.90510000
H      -40.29520000     -34.46150000     -71.03660000
S      -45.85760000     -31.72910000     -74.33250000
S      -42.16600000     -35.12460000     -69.57350000
C      -45.89180000     -30.89810000     -72.63610000
H      -45.06890000     -30.15520000     -72.61510000
H      -46.74050000     -30.27800000     -72.38600000
C      -43.96190000     -35.30480000     -70.01750000
H      -44.24420000     -36.36200000     -69.73490000
H      -44.09360000     -35.06330000     -71.05520000
C      -44.72800000     -34.27830000     -69.22920000
H      -44.47630000     -34.23080000     -68.20610000
H      -44.49460000     -33.24980000     -69.68640000
C      -45.79090000     -31.91790000     -71.34730000
H      -45.80670000     -31.30280000     -70.48780000
H      -44.84420000     -32.44030000     -71.47040000
C      -46.98430000     -32.82300000     -71.24880000
C      -48.18310000     -32.53170000     -71.89220000
C      -47.12800000     -33.89350000     -70.25880000
H      -48.31170000     -31.81690000     -72.72060000
C      -48.43180000     -34.31080000     -70.22480000
C      -46.22800000     -34.59630000     -69.31500000
C      -46.90030000     -35.63640000     -68.70840000
S      -49.55720000     -33.44680000     -71.26150000
S      -48.65100000     -35.63790000     -69.16720000
H      -46.64540000     -36.29210000     -67.86650000
