40
Properties=species:S:1:pos:R:3 #=T CELL(abcABC):=T 1.889726e+02=T 90.00000=T Traj:=T positionsangstrom=T Step:=T 0=T Bead:=T pbc="F F F"
C      -48.48110000     -32.54450000     -73.01600000
C      -47.49280000     -33.42790000     -72.68200000
C      -46.16820000     -33.01850000     -72.86380000
C      -45.83480000     -31.77960000     -73.42640000
C      -46.87960000     -30.95100000     -73.92180000
C      -48.19340000     -31.37730000     -73.68890000
H      -49.46070000     -32.95650000     -72.75670000
H      -45.38550000     -33.80160000     -72.65930000
H      -46.64120000     -30.07420000     -74.56020000
H      -48.99350000     -30.88450000     -74.19570000
C      -44.38260000     -31.48540000     -73.68650000
H      -44.11430000     -31.03840000     -74.66330000
H      -43.77500000     -32.34480000     -73.50590000
C      -47.74420000     -34.64260000     -71.89180000
H      -48.41060000     -35.33370000     -72.46530000
H      -46.82800000     -35.21260000     -71.72310000
S      -43.64770000     -30.26100000     -72.37480000
S      -48.57440000     -34.43180000     -70.23900000
C      -44.51840000     -30.55620000     -70.80060000
H      -44.71980000     -29.55810000     -70.44990000
H      -45.46420000     -31.05830000     -71.12400000
C      -47.48320000     -33.24090000     -69.30680000
H      -48.08270000     -32.65940000     -68.57080000
H      -47.28490000     -32.54160000     -70.08780000
C      -46.35980000     -33.97760000     -68.55530000
H      -45.86760000     -33.37400000     -67.79220000
H      -46.92110000     -34.70510000     -67.93980000
C      -43.79150000     -31.56610000     -69.80560000
H      -44.42830000     -31.53320000     -68.87060000
H      -42.91070000     -31.03170000     -69.49390000
C      -43.40650000     -32.91860000     -70.25120000
C      -42.27570000     -33.12760000     -71.03470000
C      -44.14940000     -34.22920000     -70.07960000
H      -41.58400000     -32.31480000     -71.29600000
C      -43.56620000     -35.25510000     -70.81370000
C      -45.33740000     -34.71570000     -69.38090000
C      -45.44290000     -36.05940000     -69.43730000
S      -42.14050000     -34.73640000     -71.63390000
S      -44.26480000     -36.77700000     -70.54680000
H      -46.16340000     -36.66210000     -68.96370000
