40
Properties=species:S:1:pos:R:3 #=T CELL(abcABC):=T 1.889726e+02=T 90.00000=T Traj:=T positionsangstrom=T Step:=T 0=T Bead:=T pbc="F F F"
C      -48.39860000     -32.56660000     -73.11270000
C      -47.44410000     -33.45820000     -72.64140000
C      -46.09370000     -33.06520000     -72.82380000
C      -45.73100000     -31.89290000     -73.51560000
C      -46.74690000     -30.97380000     -73.91800000
C      -48.09760000     -31.30590000     -73.68450000
H      -49.48250000     -32.80100000     -73.03690000
H      -45.31920000     -33.80280000     -72.56470000
H      -46.33330000     -29.99890000     -74.32160000
H      -48.84780000     -30.64440000     -73.91380000
C      -44.27480000     -31.45900000     -73.72700000
H      -44.13830000     -30.90120000     -74.62930000
H      -43.61790000     -32.36610000     -73.73570000
C      -47.79870000     -34.87290000     -72.06060000
H      -48.60070000     -35.25620000     -72.64780000
H      -46.98940000     -35.58210000     -72.01390000
S      -43.69540000     -30.27770000     -72.42550000
S      -48.45720000     -34.51440000     -70.26720000
C      -44.65200000     -30.73080000     -70.85890000
H      -44.91220000     -29.85320000     -70.19120000
H      -45.58540000     -31.05730000     -71.15910000
C      -47.40500000     -33.13970000     -69.56140000
H      -48.14590000     -32.55110000     -68.92920000
H      -47.03880000     -32.62420000     -70.43590000
C      -46.30950000     -33.68600000     -68.64810000
H      -45.74500000     -32.91080000     -68.17860000
H      -46.86340000     -34.15490000     -67.73390000
C      -43.95110000     -31.52840000     -69.86070000
H      -44.59260000     -31.59560000     -68.91820000
H      -43.05450000     -30.96910000     -69.63970000
C      -43.50820000     -32.93530000     -70.25750000
C      -42.38930000     -33.08560000     -71.10800000
C      -44.18760000     -34.14830000     -69.97080000
H      -41.65960000     -32.34650000     -71.45970000
C      -43.49890000     -35.26880000     -70.51310000
C      -45.34010000     -34.61510000     -69.31740000
C      -45.56750000     -35.91850000     -69.41590000
S      -42.11630000     -34.79640000     -71.49310000
S      -44.39100000     -36.74070000     -70.43140000
H      -46.42190000     -36.40100000     -69.04970000
