40
Properties=species:S:1:pos:R:3 #=T CELL(abcABC):=T 1.889726e+02=T 90.00000=T Traj:=T positionsangstrom=T Step:=T 0=T Bead:=T pbc="F F F"
C      -48.09880000     -33.29040000     -73.89910000
C      -47.20970000     -33.77700000     -72.91720000
C      -45.95520000     -33.11710000     -72.80020000
C      -45.58320000     -32.11370000     -73.65310000
C      -46.48940000     -31.59910000     -74.62460000
C      -47.73090000     -32.17740000     -74.70840000
H      -49.10980000     -33.78120000     -73.92180000
H      -45.22790000     -33.45950000     -72.09940000
H      -46.20280000     -30.73280000     -75.32030000
H      -48.47800000     -31.73630000     -75.35340000
C      -44.19190000     -31.52780000     -73.67400000
H      -44.07900000     -31.20190000     -74.65800000
H      -43.43740000     -32.29340000     -73.53950000
C      -47.61020000     -34.86360000     -72.00350000
H      -48.36450000     -35.46810000     -72.51070000
H      -46.79270000     -35.42320000     -71.62380000
S      -43.76130000     -30.11140000     -72.55250000
S      -48.71400000     -34.26850000     -70.54380000
C      -44.55950000     -30.56400000     -70.92310000
H      -44.68120000     -29.53600000     -70.39270000
H      -45.52780000     -30.96330000     -71.02580000
C      -47.64290000     -32.94510000     -69.89510000
H      -48.38640000     -32.16360000     -69.52480000
H      -47.17030000     -32.40330000     -70.71620000
C      -46.62330000     -33.24550000     -68.77570000
H      -46.20560000     -32.30980000     -68.54650000
H      -47.17080000     -33.78690000     -67.97580000
C      -43.68800000     -31.37650000     -69.89530000
H      -44.36930000     -31.44970000     -69.01190000
H      -42.88310000     -30.73700000     -69.59150000
C      -43.43300000     -32.81570000     -70.23050000
C      -42.23270000     -33.21440000     -70.81710000
C      -44.28590000     -33.99450000     -69.81800000
H      -41.47280000     -32.50260000     -71.13140000
C      -43.70650000     -35.20780000     -70.27420000
C      -45.57810000     -34.25620000     -69.18440000
C      -45.79790000     -35.61710000     -69.07390000
S      -42.09100000     -34.95900000     -70.95160000
S      -44.49650000     -36.58690000     -69.65780000
H      -46.61830000     -36.16940000     -68.73090000
