40
Properties=species:S:1:pos:R:3 #=T CELL(abcABC):=T 1.889726e+02=T 90.00000=T Traj:=T positionsangstrom=T Step:=T 0=T Bead:=T pbc="F F F"
C      -48.08010000     -33.38430000     -74.04230000
C      -47.16680000     -33.84700000     -73.02510000
C      -45.95040000     -33.23760000     -72.91110000
C      -45.57640000     -32.17180000     -73.80690000
C      -46.45620000     -31.83630000     -74.82050000
C      -47.73900000     -32.38710000     -74.96500000
H      -49.01380000     -33.85640000     -74.05540000
H      -45.23930000     -33.66830000     -72.17260000
H      -46.02950000     -31.02460000     -75.48790000
H      -48.47860000     -32.06210000     -75.67730000
C      -44.13130000     -31.69880000     -73.64540000
H      -43.60800000     -31.38940000     -74.58140000
H      -43.46390000     -32.49430000     -73.19840000
C      -47.63950000     -34.82810000     -71.99490000
H      -48.20370000     -35.65120000     -72.45660000
H      -46.78810000     -35.38300000     -71.62960000
S      -43.88030000     -30.24710000     -72.55390000
S      -48.54990000     -34.09340000     -70.56250000
C      -44.66810000     -30.76320000     -70.91960000
H      -45.02270000     -29.81240000     -70.59960000
H      -45.53820000     -31.40250000     -71.16440000
C      -47.59810000     -32.60120000     -70.06840000
H      -48.33700000     -31.91170000     -69.62950000
H      -47.10760000     -32.17900000     -70.86220000
C      -46.61610000     -32.99770000     -68.94710000
H      -46.03640000     -32.13570000     -68.63180000
H      -47.18750000     -33.21120000     -67.99090000
C      -43.70040000     -31.34240000     -69.84850000
H      -44.24120000     -31.35120000     -68.91360000
H      -42.71990000     -30.78190000     -69.77110000
C      -43.43340000     -32.82530000     -70.10160000
C      -42.19830000     -33.23540000     -70.63660000
C      -44.34520000     -33.93380000     -69.80930000
H      -41.46900000     -32.48540000     -70.93500000
C      -43.71630000     -35.17190000     -70.14940000
C      -45.60440000     -34.12400000     -69.14280000
C      -45.82410000     -35.44050000     -68.89610000
S      -42.08970000     -34.97530000     -70.77620000
S      -44.56510000     -36.54590000     -69.58400000
H      -46.67120000     -35.88310000     -68.49660000
