40
Properties=species:S:1:pos:R:3 #=T CELL(abcABC):=T 1.889726e+02=T 90.00000=T Traj:=T positionsangstrom=T Step:=T 0=T Bead:=T pbc="F F F"
C      -48.01220000     -33.42190000     -73.98570000
C      -47.16100000     -33.91360000     -73.00050000
C      -45.86240000     -33.41340000     -72.94410000
C      -45.41170000     -32.44900000     -73.82120000
C      -46.23070000     -32.04440000     -74.84360000
C      -47.54510000     -32.50500000     -74.94780000
H      -49.01650000     -33.74690000     -73.91550000
H      -45.23450000     -33.74260000     -72.05310000
H      -45.80020000     -31.34430000     -75.48010000
H      -48.24460000     -32.29330000     -75.70280000
C      -44.08060000     -31.86110000     -73.67640000
H      -43.61920000     -31.56210000     -74.59800000
H      -43.44640000     -32.61720000     -73.28510000
C      -47.74200000     -34.85170000     -71.99350000
H      -48.43190000     -35.50020000     -72.55850000
H      -46.91780000     -35.42670000     -71.46540000
S      -44.02700000     -30.30960000     -72.64700000
S      -48.64430000     -34.03760000     -70.57640000
C      -44.74330000     -30.68590000     -71.00200000
H      -45.19280000     -29.83260000     -70.61180000
H      -45.54490000     -31.41850000     -71.22780000
C      -47.56100000     -32.56170000     -70.06390000
H      -48.22690000     -31.66140000     -69.89830000
H      -46.89470000     -32.34490000     -70.94590000
C      -46.67770000     -32.94100000     -68.86330000
H      -46.10760000     -32.00270000     -68.49760000
H      -47.24810000     -33.25680000     -68.00610000
C      -43.61960000     -31.27710000     -70.03430000
H      -43.79560000     -31.01130000     -69.03980000
H      -42.67190000     -30.75830000     -70.24730000
C      -43.38660000     -32.79490000     -70.19410000
C      -42.17060000     -33.23240000     -70.70120000
C      -44.22850000     -33.82660000     -69.67070000
H      -41.44230000     -32.49170000     -71.07710000
C      -43.60130000     -35.08950000     -69.82380000
C      -45.61960000     -33.97400000     -69.20210000
C      -45.98610000     -35.25840000     -69.13400000
S      -42.04870000     -34.96400000     -70.62000000
S      -44.67950000     -36.45090000     -69.53760000
H      -46.89920000     -35.56670000     -68.63790000
