40
Properties=species:S:1:pos:R:3 #=T CELL(abcABC):=T 1.889726e+02=T 90.00000=T Traj:=T positionsangstrom=T Step:=T 0=T Bead:=T pbc="F F F"
C      -47.92040000     -33.56740000     -74.04560000
C      -47.20360000     -34.02310000     -72.93550000
C      -45.88870000     -33.59440000     -72.80640000
C      -45.24820000     -32.80150000     -73.72680000
C      -45.95080000     -32.41780000     -74.85990000
C      -47.27890000     -32.80090000     -75.04110000
H      -48.94920000     -34.00730000     -74.21440000
H      -45.29650000     -33.95260000     -72.04580000
H      -45.44470000     -31.91850000     -75.73160000
H      -47.86480000     -32.50040000     -75.91420000
C      -43.90580000     -32.24400000     -73.63150000
H      -43.51570000     -32.18600000     -74.66470000
H      -43.09120000     -32.69880000     -73.01600000
C      -47.85560000     -34.88190000     -71.90100000
H      -48.74590000     -35.43080000     -72.35930000
H      -47.11250000     -35.62650000     -71.54470000
S      -43.84430000     -30.49490000     -73.01290000
S      -48.67660000     -33.87110000     -70.58410000
C      -44.63200000     -30.67620000     -71.31740000
H      -44.97040000     -29.67090000     -71.08110000
H      -45.48490000     -31.23440000     -71.38820000
C      -47.69480000     -32.37830000     -70.23760000
H      -48.42330000     -31.64360000     -69.88660000
H      -47.12200000     -31.93190000     -71.08870000
C      -46.74200000     -32.56520000     -69.00770000
H      -46.31140000     -31.62510000     -68.72150000
H      -47.42630000     -32.87100000     -68.10020000
C      -43.77090000     -31.21510000     -70.21940000
H      -44.32890000     -31.03760000     -69.29850000
H      -42.89030000     -30.68650000     -70.21070000
C      -43.46270000     -32.70970000     -70.31880000
C      -42.26700000     -33.31410000     -70.74340000
C      -44.30930000     -33.72600000     -69.77190000
H      -41.47700000     -32.75240000     -71.24290000
C      -43.74000000     -34.93890000     -69.72410000
C      -45.73530000     -33.72450000     -69.28660000
C      -46.04500000     -34.99850000     -69.04270000
S      -42.11890000     -34.98750000     -70.24840000
S      -44.73060000     -36.21810000     -69.20330000
H      -47.07070000     -35.19170000     -68.79140000
