40
Properties=species:S:1:pos:R:3 #=T CELL(abcABC):=T 1.889726e+02=T 90.00000=T Traj:=T positionsangstrom=T Step:=T 0=T Bead:=T pbc="F F F"
C      -47.96810000     -33.48820000     -74.14060000
C      -47.25680000     -34.16690000     -73.15620000
C      -45.92550000     -33.80400000     -73.04240000
C      -45.20110000     -33.01320000     -73.93950000
C      -45.95080000     -32.38410000     -74.94730000
C      -47.31090000     -32.66310000     -75.08050000
H      -48.97740000     -33.72780000     -74.39700000
H      -45.25620000     -34.35230000     -72.33270000
H      -45.48870000     -31.63360000     -75.66480000
H      -47.90260000     -32.21310000     -75.95480000
C      -43.72630000     -32.74290000     -73.69650000
H      -43.09790000     -33.02580000     -74.57290000
H      -43.46460000     -33.49770000     -72.90060000
C      -47.92170000     -34.94470000     -72.08630000
H      -48.70260000     -35.57200000     -72.45740000
H      -47.27360000     -35.56300000     -71.42810000
S      -43.38620000     -31.01170000     -73.12190000
S      -48.84990000     -33.92880000     -70.83310000
C      -44.42090000     -30.79860000     -71.63720000
H      -44.76910000     -29.76190000     -71.62160000
H      -45.23820000     -31.46230000     -71.69880000
C      -47.78340000     -32.37620000     -70.44580000
H      -48.46460000     -31.53750000     -70.18630000
H      -47.18120000     -32.14970000     -71.30870000
C      -46.91890000     -32.48210000     -69.19450000
H      -46.52170000     -31.47980000     -68.79010000
H      -47.60730000     -32.83960000     -68.42260000
C      -43.59870000     -31.08620000     -70.36650000
H      -44.09100000     -30.61350000     -69.50590000
H      -42.54270000     -30.60000000     -70.46420000
C      -43.42620000     -32.50570000     -70.09380000
C      -42.11800000     -33.07240000     -70.22100000
C      -44.45580000     -33.49180000     -69.76200000
H      -41.18860000     -32.54910000     -70.27860000
C      -43.83680000     -34.81690000     -69.54330000
C      -45.83880000     -33.49980000     -69.26450000
C      -46.19550000     -34.70050000     -68.76740000
S      -42.09040000     -34.79300000     -69.83900000
S      -44.98810000     -36.02360000     -68.93880000
H      -47.11230000     -34.92350000     -68.21430000
