40
Properties=species:S:1:pos:R:3 #=T CELL(abcABC):=T 1.889726e+02=T 90.00000=T Traj:=T positionsangstrom=T Step:=T 0=T Bead:=T pbc="F F F"
C      -47.87140000     -33.42500000     -74.14550000
C      -47.18150000     -34.04480000     -73.07200000
C      -45.81600000     -33.90660000     -73.03540000
C      -45.08910000     -33.08860000     -73.94860000
C      -45.82670000     -32.42290000     -74.96070000
C      -47.19760000     -32.64910000     -75.02220000
H      -48.94140000     -33.40710000     -74.12110000
H      -45.31190000     -34.38890000     -72.17250000
H      -45.25730000     -31.89810000     -75.67620000
H      -47.83450000     -32.11930000     -75.77320000
C      -43.60260000     -32.99200000     -73.85700000
H      -43.00170000     -32.93820000     -74.77470000
H      -43.11620000     -33.77550000     -73.28530000
C      -47.94110000     -34.98730000     -72.11930000
H      -48.71430000     -35.49350000     -72.71680000
H      -47.26080000     -35.77560000     -71.72010000
S      -43.15220000     -31.26900000     -73.21190000
S      -48.82210000     -33.85670000     -70.87640000
C      -44.32720000     -30.90000000     -71.81830000
H      -44.59500000     -29.80960000     -71.90130000
H      -45.32520000     -31.32250000     -71.89060000
C      -47.81860000     -32.37870000     -70.76950000
H      -48.43770000     -31.47970000     -70.79000000
H      -47.18540000     -32.33730000     -71.70240000
C      -46.84530000     -32.32380000     -69.52970000
H      -46.40680000     -31.27460000     -69.65730000
H      -47.46230000     -32.20530000     -68.60470000
C      -43.89670000     -31.04150000     -70.28720000
H      -44.73270000     -30.71040000     -69.70120000
H      -43.17900000     -30.32140000     -70.03510000
C      -43.54500000     -32.47060000     -69.96250000
C      -42.30520000     -33.03150000     -70.26590000
C      -44.51600000     -33.44860000     -69.45770000
H      -41.39550000     -32.63530000     -70.71630000
C      -43.89700000     -34.69620000     -69.18220000
C      -45.92600000     -33.52500000     -69.29660000
C      -46.35980000     -34.77630000     -68.91530000
S      -42.22450000     -34.69190000     -69.69900000
S      -45.05560000     -35.92130000     -68.72700000
H      -47.34080000     -35.33750000     -68.81330000
