40
Properties=species:S:1:pos:R:3 #=T CELL(abcABC):=T 1.889726e+02=T 90.00000=T Traj:=T positionsangstrom=T Step:=T 0=T Bead:=T pbc="F F F"
C      -47.68520000     -33.50660000     -74.12620000
C      -47.00210000     -34.16760000     -73.03180000
C      -45.59850000     -34.21230000     -72.96440000
C      -44.77060000     -33.56330000     -73.86820000
C      -45.41220000     -32.91140000     -74.89980000
C      -46.83660000     -32.82920000     -75.00210000
H      -48.67160000     -33.14790000     -74.05090000
H      -45.17350000     -34.65440000     -72.04900000
H      -44.86870000     -32.25820000     -75.67900000
H      -47.31300000     -32.20970000     -75.83860000
C      -43.29450000     -33.48000000     -73.74790000
H      -42.77850000     -33.81890000     -74.62910000
H      -43.03420000     -34.15730000     -72.95370000
C      -47.76090000     -34.84810000     -71.93470000
H      -48.42480000     -35.61960000     -72.27020000
H      -47.20770000     -35.26840000     -71.09630000
S      -42.80410000     -31.69960000     -73.27800000
S      -48.97470000     -33.65880000     -71.15670000
C      -44.15440000     -30.93770000     -72.28600000
H      -44.18700000     -29.82610000     -72.49760000
H      -45.10640000     -31.39250000     -72.52230000
C      -47.97870000     -32.12550000     -70.78260000
H      -48.76280000     -31.34890000     -70.81160000
H      -47.22480000     -31.81690000     -71.51980000
C      -47.11610000     -32.19890000     -69.50310000
H      -46.54870000     -31.27020000     -69.51690000
H      -47.80830000     -32.12350000     -68.69350000
C      -43.94190000     -30.99320000     -70.73490000
H      -44.74740000     -30.54550000     -70.20570000
H      -43.06600000     -30.40210000     -70.38640000
C      -43.74600000     -32.36660000     -70.10060000
C      -42.46440000     -32.86870000     -70.03910000
C      -44.73830000     -33.28950000     -69.58330000
H      -41.58980000     -32.34850000     -70.34190000
C      -44.14120000     -34.50540000     -69.17070000
C      -46.17030000     -33.31560000     -69.25810000
C      -46.59880000     -34.46620000     -68.62720000
S      -42.39070000     -34.56680000     -69.52240000
S      -45.33710000     -35.64370000     -68.57390000
H      -47.54840000     -34.74090000     -68.27100000
