40
Properties=species:S:1:pos:R:3 #=T CELL(abcABC):=T 1.889726e+02=T 90.00000=T Traj:=T positionsangstrom=T Step:=T 0=T Bead:=T pbc="F F F"
C      -47.34790000     -34.05530000     -74.47640000
C      -46.98210000     -34.25630000     -73.14420000
C      -45.59340000     -34.14930000     -72.77890000
C      -44.64370000     -33.72170000     -73.76090000
C      -45.09000000     -33.53470000     -75.05980000
C      -46.37580000     -33.69110000     -75.41000000
H      -48.38290000     -34.03570000     -74.64340000
H      -45.13860000     -34.43990000     -71.80070000
H      -44.37270000     -33.10440000     -75.79490000
H      -46.65880000     -33.55430000     -76.45430000
C      -43.19580000     -33.55610000     -73.49320000
H      -42.64560000     -34.03190000     -74.32530000
H      -42.89350000     -34.18690000     -72.62140000
C      -47.98020000     -34.59270000     -72.07150000
H      -48.64790000     -35.43950000     -72.28800000
H      -47.29880000     -34.98030000     -71.26030000
S      -42.60340000     -31.84550000     -73.23530000
S      -48.96310000     -33.09450000     -71.53820000
C      -44.02620000     -31.02680000     -72.32190000
H      -44.13010000     -30.00120000     -72.70620000
H      -44.91560000     -31.61960000     -72.51570000
C      -47.63030000     -31.85180000     -71.01530000
H      -48.07060000     -30.88770000     -71.29180000
H      -46.82630000     -32.07340000     -71.75220000
C      -47.17180000     -31.86730000     -69.53540000
H      -46.51830000     -30.93460000     -69.34260000
H      -48.07300000     -31.72920000     -68.87930000
C      -43.86550000     -31.10280000     -70.75240000
H      -44.61490000     -30.51940000     -70.30070000
H      -42.96220000     -30.45120000     -70.63880000
C      -43.79580000     -32.44220000     -70.14440000
C      -42.60610000     -33.17120000     -70.23760000
C      -44.81800000     -33.21110000     -69.39670000
H      -41.75270000     -32.81980000     -70.78800000
C      -44.35280000     -34.47500000     -68.95900000
C      -46.26830000     -33.04500000     -69.13250000
C      -46.79430000     -34.06410000     -68.40810000
S      -42.72160000     -34.77290000     -69.45570000
S      -45.61960000     -35.33780000     -68.06940000
H      -47.79280000     -33.98910000     -68.11460000
