40
Properties=species:S:1:pos:R:3 #=T CELL(abcABC):=T 1.889726e+02=T 90.00000=T Traj:=T positionsangstrom=T Step:=T 0=T Bead:=T pbc="F F F"
C      -43.79110000     -33.40120000     -73.17410000
C      -43.87110000     -34.80560000     -73.06550000
C      -45.13380000     -35.39580000     -73.19110000
C      -46.31860000     -34.62680000     -73.47930000
C      -46.18020000     -33.25200000     -73.62230000
C      -44.96340000     -32.61210000     -73.38530000
H      -42.79620000     -32.98940000     -72.96130000
H      -45.18410000     -36.47040000     -73.08810000
H      -46.98350000     -32.57750000     -73.75230000
H      -44.89070000     -31.55190000     -73.34560000
C      -47.62410000     -35.26230000     -73.29060000
H      -47.50730000     -36.31260000     -73.31940000
H      -48.39430000     -34.82240000     -73.88730000
C      -42.58590000     -35.47350000     -72.63950000
H      -42.47110000     -36.49780000     -73.17440000
H      -41.67160000     -34.96540000     -72.99380000
S      -48.34270000     -35.08430000     -71.51670000
S      -42.25710000     -35.83750000     -70.79290000
C      -46.83910000     -35.47710000     -70.37330000
H      -47.00970000     -36.38890000     -69.79800000
H      -45.96500000     -35.59880000     -70.94110000
C      -43.60190000     -34.91250000     -69.93500000
H      -44.07990000     -35.59980000     -69.13670000
H      -44.38960000     -34.74020000     -70.67220000
C      -43.23330000     -33.44590000     -69.41240000
H      -43.50650000     -33.26380000     -68.40280000
H      -42.12780000     -33.30100000     -69.36170000
C      -46.53680000     -34.36590000     -69.28600000
H      -45.62690000     -34.56320000     -68.75190000
H      -47.27960000     -34.47960000     -68.53590000
C      -46.47910000     -32.91920000     -69.71100000
C      -47.66390000     -32.18720000     -69.91210000
C      -45.35350000     -32.15500000     -70.11770000
H      -48.60860000     -32.61940000     -69.96230000
C      -45.71570000     -30.86560000     -70.56900000
C      -43.87620000     -32.34980000     -70.12570000
C      -43.23140000     -31.20430000     -70.61520000
S      -47.38640000     -30.73380000     -70.80770000
S      -44.34320000     -29.90300000     -71.15310000
H      -42.16010000     -30.96080000     -70.66820000
