40
Properties=species:S:1:pos:R:3 #=T CELL(abcABC):=T 1.889726e+02=T 90.00000=T Traj:=T positionsangstrom=T Step:=T 0=T Bead:=T pbc="F F F"
C      -44.89510000     -35.99980000     -67.83360000
C      -44.43220000     -36.12650000     -69.16070000
C      -43.41860000     -35.25650000     -69.60820000
C      -43.04380000     -34.13470000     -68.85130000
C      -43.56480000     -33.94350000     -67.57240000
C      -44.45340000     -34.90280000     -67.07740000
H      -45.70210000     -36.67650000     -67.48420000
H      -43.11930000     -35.58470000     -70.60930000
H      -43.28970000     -33.03220000     -67.00590000
H      -44.94220000     -34.76650000     -66.06430000
C      -42.01480000     -33.11630000     -69.42350000
H      -41.15480000     -33.66920000     -69.80010000
H      -41.68270000     -32.36900000     -68.63150000
C      -44.91290000     -37.27030000     -69.98600000
H      -44.16900000     -37.43470000     -70.82280000
H      -45.03980000     -38.19120000     -69.43610000
S      -42.71910000     -32.20510000     -70.86450000
S      -46.50800000     -36.99980000     -70.80530000
C      -44.07590000     -31.25870000     -69.97500000
H      -43.88680000     -31.23460000     -68.92080000
H      -44.08290000     -30.19920000     -70.27530000
C      -45.87060000     -35.97180000     -72.28140000
H      -46.50010000     -36.17430000     -73.14140000
H      -44.94780000     -36.36550000     -72.58590000
C      -45.79570000     -34.53320000     -72.00620000
H      -46.50840000     -34.23670000     -71.19220000
H      -44.84180000     -34.21560000     -71.71470000
C      -45.51760000     -31.77240000     -70.24870000
H      -46.16570000     -31.57480000     -69.38160000
H      -45.50980000     -32.86660000     -70.20240000
C      -46.11230000     -31.27730000     -71.55340000
C      -46.30770000     -29.91600000     -71.82540000
C      -46.36700000     -32.12980000     -72.72880000
H      -46.32060000     -29.09900000     -71.16330000
C      -46.81520000     -31.35970000     -73.78290000
C      -46.19150000     -33.53940000     -73.09790000
C      -46.67840000     -33.85220000     -74.36990000
S      -47.00580000     -29.60900000     -73.45560000
S      -47.23740000     -32.28900000     -75.19900000
H      -46.66000000     -34.85730000     -74.77510000
