40
Properties=species:S:1:pos:R:3 #=T CELL(abcABC):=T 1.889726e+02=T 90.00000=T Traj:=T positionsangstrom=T Step:=T 0=T Bead:=T pbc="F F F"
C      -46.66400000     -34.60820000     -75.08410000
C      -46.90640000     -34.30760000     -73.70410000
C      -45.88410000     -34.48190000     -72.75580000
C      -44.59300000     -34.96860000     -73.22810000
C      -44.48080000     -35.36820000     -74.54400000
C      -45.49250000     -35.21200000     -75.51510000
H      -47.48950000     -34.48600000     -75.69670000
H      -45.95850000     -34.44210000     -71.68880000
H      -43.60400000     -35.99580000     -74.83530000
H      -45.36440000     -35.54160000     -76.51670000
C      -43.37170000     -35.13080000     -72.23370000
H      -42.92010000     -36.09830000     -72.38010000
H      -43.78500000     -35.03650000     -71.25350000
C      -48.23630000     -33.69350000     -73.36150000
H      -48.73010000     -33.78260000     -74.29560000
H      -48.81560000     -34.18460000     -72.58680000
S      -41.96630000     -33.91760000     -72.27110000
S      -48.29100000     -31.88220000     -72.95120000
C      -42.87350000     -32.37850000     -72.30770000
H      -42.48440000     -31.72330000     -72.99790000
H      -43.86310000     -32.59840000     -72.63380000
C      -46.65060000     -31.29780000     -72.40650000
H      -46.48460000     -30.32740000     -72.95500000
H      -45.93320000     -32.06220000     -72.69210000
C      -46.43260000     -30.94710000     -70.93980000
H      -45.46480000     -30.43670000     -70.89270000
H      -47.13380000     -30.19540000     -70.57020000
C      -42.96710000     -31.71770000     -70.88440000
H      -43.41200000     -30.69240000     -70.93400000
H      -41.92320000     -31.55060000     -70.49190000
C      -43.72550000     -32.56230000     -69.86030000
C      -42.96590000     -33.24570000     -68.87970000
C      -45.16390000     -32.76620000     -69.59680000
H      -41.92560000     -33.32680000     -68.75420000
C      -45.39290000     -33.60040000     -68.44970000
C      -46.36540000     -32.08860000     -69.97720000
C      -47.46850000     -32.58830000     -69.35530000
S      -43.93760000     -34.19810000     -67.77220000
S      -47.04960000     -33.69260000     -67.99910000
H      -48.46660000     -32.06620000     -69.28160000
