40
Properties=species:S:1:pos:R:3 #=T CELL(abcABC):=T 1.889726e+02=T 90.00000=T Traj:=T positionsangstrom=T Step:=T 0=T Bead:=T pbc="F F F"
C      -42.36480000     -34.22310000     -73.52090000
C      -42.40550000     -32.97500000     -72.93250000
C      -42.32240000     -32.86060000     -71.54270000
C      -42.32630000     -33.91170000     -70.67050000
C      -42.33170000     -35.15480000     -71.27340000
C      -42.37800000     -35.32790000     -72.66040000
H      -42.30100000     -34.24360000     -74.60550000
H      -42.38430000     -31.90120000     -71.13590000
H      -42.47030000     -35.97590000     -70.60890000
H      -42.31730000     -36.37430000     -73.05760000
C      -42.24160000     -33.79450000     -69.14620000
H      -41.25310000     -33.46500000     -68.90440000
H      -42.46640000     -34.72820000     -68.58100000
C      -42.34710000     -31.70120000     -73.83140000
H      -41.61820000     -31.08690000     -73.31520000
H      -41.95310000     -31.88410000     -74.82500000
S      -43.39640000     -32.46660000     -68.50490000
S      -43.87260000     -30.72330000     -73.74370000
C      -44.91480000     -33.44230000     -68.67050000
H      -44.79790000     -34.12440000     -69.56810000
H      -45.25390000     -34.02550000     -67.78490000
C      -45.27470000     -31.93730000     -73.76720000
H      -45.15120000     -32.85260000     -74.38070000
H      -46.09030000     -31.26850000     -74.21190000
C      -45.67840000     -32.30720000     -72.28810000
H      -44.85260000     -32.87990000     -71.80260000
H      -45.63440000     -31.25810000     -71.87620000
C      -46.16380000     -32.41030000     -68.94650000
H      -45.97060000     -31.64420000     -69.66140000
H      -46.47640000     -31.86100000     -67.98930000
C      -47.26690000     -33.19560000     -69.48940000
C      -48.30390000     -33.77220000     -68.72460000
C      -47.41750000     -33.59430000     -70.87610000
H      -48.43770000     -33.71830000     -67.67420000
C      -48.36970000     -34.56880000     -71.03610000
C      -46.82470000     -33.23420000     -72.16990000
C      -47.36620000     -33.95340000     -73.23480000
S      -49.39540000     -34.87480000     -69.63840000
S      -48.62380000     -35.02010000     -72.75860000
H      -46.94620000     -33.82680000     -74.22250000
