40
Properties=species:S:1:pos:R:3 #=T CELL(abcABC):=T 1.889726e+02=T 90.00000=T Traj:=T positionsangstrom=T Step:=T 0=T Bead:=T pbc="F F F"
C      -47.74310000     -35.32920000     -72.17700000
C      -46.79610000     -36.23180000     -71.68950000
C      -46.40410000     -36.21000000     -70.32240000
C      -47.07800000     -35.36110000     -69.46950000
C      -48.06780000     -34.48940000     -69.96700000
C      -48.41420000     -34.42300000     -71.29910000
H      -47.81990000     -35.08230000     -73.26720000
H      -45.56410000     -36.86120000     -69.98140000
H      -48.69070000     -33.90630000     -69.34220000
H      -49.05130000     -33.65170000     -71.60210000
C      -46.70870000     -35.33640000     -68.00820000
H      -45.99120000     -36.15480000     -67.94180000
H      -47.57610000     -35.59880000     -67.40410000
C      -46.06790000     -37.05880000     -72.77530000
H      -46.19070000     -38.16170000     -72.66570000
H      -46.42870000     -36.74290000     -73.75900000
S      -45.88730000     -33.83880000     -67.29230000
S      -44.33100000     -36.67900000     -72.64070000
C      -45.87330000     -32.47320000     -68.53120000
H      -46.91750000     -32.24900000     -68.97040000
H      -45.39630000     -31.64260000     -67.98720000
C      -44.29680000     -34.80460000     -72.86000000
H      -45.08720000     -34.37880000     -72.24740000
H      -44.44440000     -34.52340000     -73.94580000
C      -43.03850000     -34.10120000     -72.33480000
H      -42.75930000     -34.39070000     -71.28390000
H      -42.18550000     -34.47900000     -72.85750000
C      -44.94550000     -32.75630000     -69.74900000
H      -45.23390000     -33.74130000     -70.20980000
H      -43.88070000     -32.88540000     -69.40180000
C      -45.01970000     -31.63490000     -70.76080000
C      -45.72470000     -30.48540000     -70.64930000
C      -44.21340000     -31.71460000     -71.91350000
H      -46.37680000     -30.12190000     -69.84160000
C      -44.23910000     -30.53870000     -72.62410000
C      -43.31370000     -32.64110000     -72.61050000
C      -42.97500000     -32.21830000     -73.86690000
S      -45.33900000     -29.33290000     -71.90220000
S      -43.45540000     -30.56650000     -74.21930000
H      -42.19260000     -32.54680000     -74.48490000
