40
Properties=species:S:1:pos:R:3 #=T CELL(abcABC):=T 1.889726e+02=T 90.00000=T Traj:=T positionsangstrom=T Step:=T 0=T Bead:=T pbc="F F F"
C      -44.55750000     -33.62070000     -73.97280000
C      -44.59870000     -34.87560000     -73.35050000
C      -45.84930000     -35.39960000     -72.88440000
C      -47.03580000     -34.75940000     -73.16300000
C      -46.91780000     -33.41110000     -73.65840000
C      -45.70710000     -32.92340000     -74.18530000
H      -43.63410000     -33.39490000     -74.36020000
H      -45.84370000     -36.35370000     -72.35140000
H      -47.79540000     -32.83480000     -73.84750000
H      -45.78260000     -31.97160000     -74.73520000
C      -48.39260000     -35.26660000     -72.65010000
H      -48.27810000     -36.36070000     -72.51730000
H      -49.15600000     -35.07790000     -73.41700000
C      -43.34050000     -35.73320000     -73.16010000
H      -43.64250000     -36.78330000     -72.98450000
H      -42.68360000     -35.81960000     -74.01620000
S      -48.91050000     -34.53010000     -70.97700000
S      -42.20510000     -35.24530000     -71.76120000
C      -47.42420000     -35.04010000     -69.90980000
H      -47.76630000     -35.86400000     -69.31130000
H      -46.63910000     -35.43800000     -70.49700000
C      -43.31830000     -35.36850000     -70.36940000
H      -43.23920000     -36.39060000     -69.96010000
H      -44.34890000     -35.21790000     -70.77490000
C      -43.14890000     -34.31990000     -69.27690000
H      -43.71420000     -34.51030000     -68.35800000
H      -42.13180000     -34.19000000     -68.96010000
C      -46.81400000     -33.89420000     -68.96030000
H      -46.01420000     -34.43150000     -68.51230000
H      -47.59290000     -33.68650000     -68.20800000
C      -46.28040000     -32.71090000     -69.75930000
C      -47.18050000     -31.84090000     -70.30160000
C      -44.88600000     -32.25780000     -69.87950000
H      -48.26420000     -31.91120000     -70.13930000
C      -44.82910000     -31.00340000     -70.47310000
C      -43.55580000     -32.82310000     -69.72920000
C      -42.57480000     -31.87420000     -70.09500000
S      -46.44230000     -30.32660000     -70.88960000
S      -43.26260000     -30.41310000     -70.68550000
H      -41.46630000     -31.93940000     -69.94470000
