40
Properties=species:S:1:pos:R:3 #=T CELL(abcABC):=T 1.889726e+02=T 90.00000=T Traj:=T positionsangstrom=T Step:=T 0=T Bead:=T pbc="F F F"
C      -44.57100000     -33.74710000     -73.79160000
C      -44.71380000     -35.07010000     -73.45090000
C      -45.99700000     -35.60450000     -73.33600000
C      -47.15680000     -34.76800000     -73.31220000
C      -46.96430000     -33.41010000     -73.62600000
C      -45.71040000     -32.87560000     -73.87380000
H      -43.56730000     -33.28720000     -73.97690000
H      -46.16850000     -36.58560000     -73.00420000
H      -47.91100000     -32.82060000     -73.73240000
H      -45.74580000     -31.88060000     -74.32980000
C      -48.46990000     -35.24750000     -72.64290000
H      -48.57070000     -36.34590000     -72.47780000
H      -49.39150000     -34.91860000     -73.13900000
C      -43.54150000     -35.93510000     -73.11510000
H      -43.81300000     -36.93860000     -72.87150000
H      -42.97430000     -35.99270000     -74.07500000
S      -48.68060000     -34.46930000     -71.00440000
S      -42.43920000     -35.17900000     -71.81720000
C      -47.14740000     -35.14920000     -70.18770000
H      -47.36010000     -36.11190000     -69.72840000
H      -46.41060000     -35.07370000     -70.94450000
C      -43.48510000     -35.29040000     -70.20800000
H      -43.49530000     -36.21480000     -69.57750000
H      -44.54110000     -35.24250000     -70.58300000
C      -43.17810000     -34.13110000     -69.29640000
H      -43.80320000     -34.33670000     -68.44410000
H      -42.11610000     -34.08500000     -68.90180000
C      -46.68390000     -34.12820000     -69.08280000
H      -45.87940000     -34.63330000     -68.37720000
H      -47.55740000     -34.12360000     -68.40660000
C      -46.21760000     -32.71400000     -69.60600000
C      -47.13450000     -31.70930000     -69.88640000
C      -44.90370000     -32.24690000     -69.92010000
H      -48.21280000     -31.70020000     -69.79530000
C      -44.78030000     -30.94860000     -70.41840000
C      -43.49090000     -32.81270000     -69.92370000
C      -42.54580000     -31.98640000     -70.48280000
S      -46.34830000     -30.19970000     -70.46830000
S      -43.21400000     -30.41510000     -70.87690000
H      -41.53520000     -32.11900000     -70.63910000
