40
Properties=species:S:1:pos:R:3 #=T CELL(abcABC):=T 1.889726e+02=T 90.00000=T Traj:=T positionsangstrom=T Step:=T 0=T Bead:=T pbc="F F F"
C      -44.54330000     -33.68080000     -73.82440000
C      -44.69330000     -34.98890000     -73.44060000
C      -45.96490000     -35.50960000     -73.11320000
C      -47.08790000     -34.66470000     -73.14380000
C      -46.87890000     -33.32740000     -73.54070000
C      -45.66170000     -32.83810000     -73.93150000
H      -43.49100000     -33.25500000     -74.05060000
H      -46.24350000     -36.56830000     -72.91280000
H      -47.82950000     -32.82840000     -73.42700000
H      -45.49200000     -31.78380000     -74.12720000
C      -48.44520000     -35.08950000     -72.72970000
H      -48.51420000     -36.16950000     -72.75270000
H      -49.27190000     -34.66260000     -73.29980000
C      -43.52440000     -35.91030000     -73.26500000
H      -43.75220000     -37.00600000     -73.06440000
H      -43.02480000     -35.91190000     -74.20650000
S      -48.68630000     -34.57370000     -70.94010000
S      -42.41320000     -35.18640000     -71.96990000
C      -47.14420000     -34.99460000     -70.07950000
H      -47.06320000     -36.01990000     -69.71780000
H      -46.36490000     -35.13260000     -70.89520000
C      -43.45160000     -35.31830000     -70.40220000
H      -43.13920000     -36.22760000     -69.95400000
H      -44.49020000     -35.35830000     -70.67060000
C      -43.10350000     -34.18770000     -69.43270000
H      -43.44000000     -34.49900000     -68.46810000
H      -41.98910000     -34.16720000     -69.35170000
C      -46.63550000     -34.12120000     -68.94550000
H      -45.81710000     -34.59780000     -68.51380000
H      -47.36660000     -34.03930000     -68.16980000
C      -46.22030000     -32.70100000     -69.43080000
C      -47.17520000     -31.68680000     -69.66620000
C      -44.90010000     -32.31650000     -69.88070000
H      -48.15280000     -31.64820000     -69.30000000
C      -44.86650000     -31.01980000     -70.45350000
C      -43.50740000     -32.87600000     -69.91380000
C      -42.61940000     -31.92830000     -70.30930000
S      -46.45910000     -30.23340000     -70.41330000
S      -43.28870000     -30.51530000     -71.07950000
H      -41.55420000     -32.05380000     -70.44850000
