40
Properties=species:S:1:pos:R:3 #=T CELL(abcABC):=T 1.889726e+02=T 90.00000=T Traj:=T positionsangstrom=T Step:=T 0=T Bead:=T pbc="F F F"
C      -44.52710000     -33.40000000     -74.03220000
C      -44.52700000     -34.69160000     -73.51240000
C      -45.68920000     -35.19990000     -72.85400000
C      -46.89500000     -34.46240000     -72.82320000
C      -46.84700000     -33.20640000     -73.49960000
C      -45.64320000     -32.60070000     -73.98900000
H      -43.63590000     -33.10570000     -74.47460000
H      -45.66610000     -36.21670000     -72.49780000
H      -47.80850000     -32.69970000     -73.60990000
H      -45.57370000     -31.59970000     -74.49880000
C      -48.17810000     -35.07800000     -72.34900000
H      -48.03540000     -36.18120000     -72.35710000
H      -49.04150000     -34.84070000     -72.96460000
C      -43.26390000     -35.54470000     -73.61270000
H      -43.50300000     -36.56430000     -73.79480000
H      -42.55810000     -35.26740000     -74.44210000
S      -48.66820000     -34.53000000     -70.64380000
S      -42.17810000     -35.35340000     -72.08900000
C      -47.12080000     -35.15210000     -69.68970000
H      -47.40570000     -36.08700000     -69.14990000
H      -46.41860000     -35.44870000     -70.37090000
C      -43.20840000     -35.52730000     -70.58590000
H      -42.85440000     -36.38650000     -70.06000000
H      -44.22910000     -35.78170000     -70.92180000
C      -43.25430000     -34.31160000     -69.60460000
H      -43.91060000     -34.63250000     -68.76640000
H      -42.27870000     -34.14150000     -69.21240000
C      -46.66500000     -34.07630000     -68.75510000
H      -45.74960000     -34.35410000     -68.13180000
H      -47.42060000     -33.82610000     -68.04250000
C      -46.32300000     -32.78950000     -69.45820000
C      -47.23260000     -31.69460000     -69.57320000
C      -45.01690000     -32.39200000     -69.95810000
H      -48.32030000     -31.75150000     -69.28320000
C      -45.07870000     -31.11340000     -70.52020000
C      -43.73470000     -32.98740000     -70.09520000
C      -42.83980000     -32.18630000     -70.73260000
S      -46.62410000     -30.28010000     -70.41320000
S      -43.54280000     -30.64370000     -71.19580000
H      -41.82450000     -32.43720000     -71.00390000
