40
Properties=species:S:1:pos:R:3 #=T CELL(abcABC):=T 1.889726e+02=T 90.00000=T Traj:=T positionsangstrom=T Step:=T 0=T Bead:=T pbc="F F F"
C      -44.53400000     -33.28110000     -73.95200000
C      -44.54430000     -34.59640000     -73.58940000
C      -45.70170000     -35.13600000     -73.04960000
C      -46.86040000     -34.43020000     -72.84340000
C      -46.86290000     -33.09850000     -73.28610000
C      -45.69710000     -32.54540000     -73.79020000
H      -43.66200000     -32.77900000     -74.29880000
H      -45.65200000     -36.20190000     -72.85020000
H      -47.68650000     -32.42190000     -73.08650000
H      -45.70770000     -31.47420000     -74.03510000
C      -48.06310000     -35.08770000     -72.36820000
H      -47.92570000     -36.15550000     -72.27150000
H      -48.88930000     -34.94960000     -73.08100000
C      -43.25220000     -35.43510000     -73.52960000
H      -43.49090000     -36.48470000     -73.80370000
H      -42.55470000     -35.01710000     -74.26920000
S      -48.65070000     -34.62160000     -70.65780000
S      -42.17440000     -35.34530000     -71.96820000
C      -47.26970000     -35.12830000     -69.50660000
H      -47.63050000     -36.02680000     -68.88650000
H      -46.45690000     -35.57720000     -70.20900000
C      -43.49850000     -35.40430000     -70.65240000
H      -43.46520000     -36.38950000     -70.07980000
H      -44.49640000     -35.22710000     -71.07220000
C      -43.21250000     -34.37050000     -69.58780000
H      -43.80270000     -34.65990000     -68.72590000
H      -42.12890000     -34.43400000     -69.24970000
C      -46.68780000     -33.98960000     -68.61680000
H      -45.95790000     -34.45430000     -67.98780000
H      -47.54550000     -33.72880000     -68.03340000
C      -46.21670000     -32.77980000     -69.36760000
C      -47.14990000     -31.73750000     -69.48090000
C      -44.91590000     -32.38730000     -69.96250000
H      -48.17120000     -31.71320000     -69.04780000
C      -45.05570000     -31.19380000     -70.64170000
C      -43.63440000     -33.00860000     -70.18680000
C      -42.81660000     -32.23350000     -70.95010000
S      -46.57630000     -30.36820000     -70.45590000
S      -43.61460000     -30.72410000     -71.41010000
H      -41.77160000     -32.40230000     -71.19270000
