40
Properties=species:S:1:pos:R:3 #=T CELL(abcABC):=T 1.889726e+02=T 90.00000=T Traj:=T positionsangstrom=T Step:=T 0=T Bead:=T pbc="F F F"
C      -44.54290000     -33.31430000     -73.81350000
C      -44.68040000     -34.66310000     -73.55250000
C      -45.92070000     -35.23340000     -73.18780000
C      -47.06360000     -34.42930000     -73.14240000
C      -46.96730000     -33.07840000     -73.55870000
C      -45.70020000     -32.56270000     -73.79910000
H      -43.59050000     -32.76110000     -73.82790000
H      -46.00430000     -36.26970000     -73.00380000
H      -47.88980000     -32.45200000     -73.54600000
H      -45.58430000     -31.49600000     -73.85100000
C      -48.33800000     -34.93640000     -72.67060000
H      -48.52350000     -36.02430000     -72.84810000
H      -49.12760000     -34.27680000     -73.15550000
C      -43.38370000     -35.50170000     -73.51300000
H      -43.59710000     -36.59930000     -73.48790000
H      -42.76410000     -35.37620000     -74.44400000
S      -48.63820000     -34.64990000     -70.82010000
S      -42.34530000     -35.06930000     -72.05270000
C      -47.20290000     -35.22110000     -69.96910000
H      -47.33290000     -36.20300000     -69.46160000
H      -46.36250000     -35.41250000     -70.74250000
C      -43.49680000     -35.26420000     -70.65610000
H      -43.46720000     -36.34840000     -70.33680000
H      -44.48800000     -35.02840000     -71.02610000
C      -43.08840000     -34.34250000     -69.45420000
H      -43.45950000     -34.78160000     -68.50630000
H      -41.95440000     -34.30090000     -69.33490000
C      -46.67600000     -34.26810000     -68.91040000
H      -45.84710000     -34.79280000     -68.49290000
H      -47.39210000     -34.10550000     -68.13340000
C      -46.23440000     -32.91550000     -69.50710000
C      -47.17580000     -31.99870000     -69.93130000
C      -44.91000000     -32.46980000     -69.79960000
H      -48.23580000     -32.15930000     -69.62040000
C      -44.91510000     -31.16130000     -70.30140000
C      -43.52720000     -32.93550000     -69.70580000
C      -42.60470000     -32.06340000     -70.20460000
S      -46.52150000     -30.57620000     -70.60170000
S      -43.33570000     -30.55430000     -70.83700000
H      -41.53060000     -32.23280000     -70.33800000
