40
Properties=species:S:1:pos:R:3 #=T CELL(abcABC):=T 1.889726e+02=T 90.00000=T Traj:=T positionsangstrom=T Step:=T 0=T Bead:=T pbc="F F F"
C      -44.60750000     -33.23040000     -73.81600000
C      -44.58300000     -34.60900000     -73.48580000
C      -45.80640000     -35.28510000     -73.19340000
C      -46.98450000     -34.53560000     -73.18960000
C      -47.01860000     -33.16400000     -73.54130000
C      -45.81970000     -32.50620000     -73.85260000
H      -43.72170000     -32.74140000     -74.17570000
H      -45.70470000     -36.27980000     -72.78720000
H      -47.92720000     -32.58750000     -73.63150000
H      -45.81240000     -31.43690000     -74.18160000
C      -48.27880000     -35.19830000     -72.70940000
H      -48.31900000     -36.23990000     -72.74220000
H      -49.00590000     -34.72470000     -73.34840000
C      -43.24560000     -35.23930000     -73.50370000
H      -43.34550000     -36.33120000     -73.78030000
H      -42.65400000     -34.66260000     -74.21970000
S      -48.72080000     -34.63700000     -70.97550000
S      -42.24940000     -35.01840000     -71.93330000
C      -47.19140000     -35.06020000     -69.98080000
H      -47.11610000     -36.00500000     -69.58770000
H      -46.41670000     -35.06830000     -70.68820000
C      -43.34470000     -35.65310000     -70.54400000
H      -43.10580000     -36.67640000     -70.10580000
H      -44.29580000     -35.87320000     -71.05470000
C      -43.52420000     -34.63210000     -69.39500000
H      -44.24530000     -35.08360000     -68.71750000
H      -42.57230000     -34.68950000     -68.84540000
C      -46.85670000     -33.98600000     -68.89760000
H      -46.25670000     -34.37980000     -68.04580000
H      -47.78090000     -33.78000000     -68.40000000
C      -46.36170000     -32.77670000     -69.60370000
C      -47.20180000     -31.64400000     -69.87080000
C      -45.00780000     -32.44210000     -69.89890000
H      -48.23590000     -31.75720000     -69.60150000
C      -44.85320000     -31.14590000     -70.30630000
C      -43.71850000     -33.18820000     -69.82690000
C      -42.69320000     -32.44580000     -70.31930000
S      -46.32960000     -30.25070000     -70.43530000
S      -43.25910000     -30.78690000     -70.86290000
H      -41.62840000     -32.73070000     -70.49740000
