40
Properties=species:S:1:pos:R:3 #=T CELL(abcABC):=T 1.889726e+02=T 90.00000=T Traj:=T positionsangstrom=T Step:=T 0=T Bead:=T pbc="F F F"
C      -47.59500000     -35.11700000     -74.04690000
C      -47.22010000     -34.35770000     -72.87110000
C      -46.08220000     -34.71520000     -72.17090000
C      -45.12950000     -35.61230000     -72.71170000
C      -45.37200000     -36.16570000     -74.00090000
C      -46.75210000     -36.09890000     -74.49350000
H      -48.61450000     -34.90180000     -74.48230000
H      -45.90370000     -34.18000000     -71.25050000
H      -44.63820000     -36.77170000     -74.48170000
H      -46.94370000     -36.60840000     -75.42530000
C      -43.79180000     -35.77920000     -72.09770000
H      -43.54310000     -36.81790000     -72.20240000
H      -43.82210000     -35.58650000     -71.01560000
C      -48.12210000     -33.28880000     -72.29280000
H      -49.14710000     -33.50820000     -72.54020000
H      -47.95540000     -33.21740000     -71.22460000
S      -42.37770000     -34.88710000     -72.92960000
S      -47.65260000     -31.66570000     -72.92080000
C      -42.70310000     -33.13650000     -72.46340000
H      -41.89160000     -32.60480000     -72.98840000
H      -43.63910000     -32.78970000     -72.90770000
C      -45.81210000     -31.57400000     -73.00890000
H      -45.63890000     -31.01200000     -73.91910000
H      -45.37750000     -32.59040000     -73.06540000
C      -45.21110000     -30.81140000     -71.84600000
H      -44.16120000     -30.89100000     -71.94700000
H      -45.49780000     -29.74450000     -71.75010000
C      -42.41810000     -32.63370000     -71.01220000
H      -42.37030000     -31.60130000     -71.06940000
H      -41.38820000     -32.98820000     -70.95690000
C      -43.38880000     -32.96990000     -69.91720000
C      -43.04730000     -33.72400000     -68.81190000
C      -44.78660000     -32.42170000     -69.83170000
H      -42.03820000     -34.11230000     -68.65360000
C      -45.49120000     -32.85460000     -68.69820000
C      -45.53700000     -31.38790000     -70.46610000
C      -46.82040000     -31.11980000     -69.96180000
S      -44.40740000     -33.84010000     -67.62330000
S      -47.05480000     -32.06640000     -68.44980000
H      -47.52230000     -30.36710000     -70.35980000
