40
Properties=species:S:1:pos:R:3 #=T CELL(abcABC):=T 1.889726e+02=T 90.00000=T Traj:=T positionsangstrom=T Step:=T 0=T Bead:=T pbc="F F F"
C      -44.25890000     -33.49570000     -73.66390000
C      -44.68850000     -34.85720000     -73.59940000
C      -46.07680000     -35.10980000     -73.46960000
C      -46.89470000     -34.04140000     -73.46800000
C      -46.45290000     -32.71530000     -73.56870000
C      -45.09260000     -32.40630000     -73.70280000
H      -43.18840000     -33.39560000     -73.76890000
H      -46.50960000     -36.09360000     -73.63590000
H      -47.18240000     -31.89720000     -73.53800000
H      -44.63880000     -31.38500000     -73.68730000
C      -48.36710000     -34.17370000     -73.13550000
H      -48.58050000     -35.22640000     -73.07040000
H      -49.02380000     -33.75930000     -73.89430000
C      -43.66540000     -35.91420000     -73.60990000
H      -43.90530000     -36.89440000     -73.89870000
H      -42.94230000     -35.65950000     -74.39780000
S      -48.82950000     -33.36480000     -71.51040000
S      -42.78670000     -35.74160000     -71.85000000
C      -48.13990000     -34.52760000     -70.17340000
H      -49.02840000     -34.96860000     -69.72530000
H      -47.56420000     -35.22830000     -70.72720000
C      -44.24070000     -35.88330000     -70.74450000
H      -44.47810000     -36.94860000     -70.64850000
H      -45.12440000     -35.45710000     -71.25590000
C      -43.82200000     -35.17220000     -69.49300000
H      -44.55160000     -35.33280000     -68.60210000
H      -42.91300000     -35.64750000     -69.11470000
C      -47.21990000     -33.92670000     -69.06630000
H      -46.81020000     -34.75410000     -68.46760000
H      -47.94370000     -33.44880000     -68.35150000
C      -46.32170000     -32.77500000     -69.54430000
C      -46.91970000     -31.55560000     -69.80430000
C      -44.86220000     -32.73550000     -69.73970000
H      -47.91410000     -31.14010000     -69.53600000
C      -44.43080000     -31.43460000     -70.03880000
C      -43.69790000     -33.64650000     -69.69220000
C      -42.53820000     -32.91320000     -69.97740000
S      -45.77830000     -30.21030000     -70.29290000
S      -42.76020000     -31.18430000     -70.28620000
H      -41.64900000     -33.46580000     -69.97130000
