40
Properties=species:S:1:pos:R:3 #=T CELL(abcABC):=T 1.889726e+02=T 90.00000=T Traj:=T positionsangstrom=T Step:=T 0=T Bead:=T pbc="F F F"
C      -44.23790000     -33.37010000     -74.05110000
C      -44.68930000     -34.68450000     -73.66530000
C      -46.03680000     -34.84690000     -73.41520000
C      -46.92600000     -33.76560000     -73.37200000
C      -46.44760000     -32.47350000     -73.65640000
C      -45.12000000     -32.28550000     -74.07190000
H      -43.23500000     -33.17550000     -74.43310000
H      -46.31140000     -35.81180000     -73.12560000
H      -47.18020000     -31.69920000     -73.66140000
H      -44.77310000     -31.21720000     -74.22750000
C      -48.34340000     -34.04130000     -73.16880000
H      -48.54920000     -35.14470000     -73.04570000
H      -48.92940000     -33.50840000     -73.88960000
C      -43.74820000     -35.86590000     -73.50520000
H      -44.43900000     -36.76120000     -73.66120000
H      -42.95870000     -35.84970000     -74.27300000
S      -48.89610000     -33.33460000     -71.40860000
S      -42.89420000     -36.13360000     -71.80350000
C      -47.78650000     -34.50880000     -70.54220000
H      -48.14240000     -35.57780000     -70.40230000
H      -46.91710000     -34.72340000     -71.20050000
C      -44.31510000     -36.00110000     -70.56360000
H      -44.65560000     -37.00060000     -70.25690000
H      -45.11810000     -35.58000000     -71.16350000
C      -43.92620000     -35.16420000     -69.29250000
H      -44.67860000     -35.34010000     -68.57830000
H      -42.96660000     -35.49720000     -68.86750000
C      -47.24780000     -33.91580000     -69.24630000
H      -46.73540000     -34.68360000     -68.66170000
H      -48.05710000     -33.56760000     -68.61880000
C      -46.35220000     -32.67170000     -69.54540000
C      -46.88040000     -31.41260000     -69.65500000
C      -44.92400000     -32.68350000     -69.84000000
H      -47.91690000     -31.02070000     -69.74500000
C      -44.38240000     -31.41960000     -70.06810000
C      -43.88690000     -33.66650000     -69.64750000
C      -42.64400000     -33.13070000     -69.88360000
S      -45.69450000     -30.14850000     -70.15560000
S      -42.61230000     -31.42440000     -70.27150000
H      -41.76580000     -33.75200000     -69.71010000
