40
Properties=species:S:1:pos:R:3 #=T CELL(abcABC):=T 1.889726e+02=T 90.00000=T Traj:=T positionsangstrom=T Step:=T 0=T Bead:=T pbc="F F F"
C      -43.83400000     -33.43670000     -73.29560000
C      -44.64150000     -34.58350000     -73.26110000
C      -46.07280000     -34.47080000     -73.27360000
C      -46.61970000     -33.23020000     -73.44380000
C      -45.80510000     -32.08050000     -73.52720000
C      -44.41700000     -32.18160000     -73.45620000
H      -42.82370000     -33.61270000     -73.44690000
H      -46.72550000     -35.33910000     -73.08760000
H      -46.21050000     -31.09580000     -73.68320000
H      -43.75620000     -31.36520000     -73.58450000
C      -48.10740000     -33.25780000     -73.25740000
H      -48.54550000     -34.24470000     -73.23220000
H      -48.60940000     -32.68970000     -74.05370000
C      -44.07320000     -35.95830000     -73.27760000
H      -44.62940000     -36.58540000     -74.04150000
H      -43.07310000     -35.78730000     -73.68870000
S      -48.63650000     -32.44110000     -71.69770000
S      -43.99450000     -36.90320000     -71.69760000
C      -48.24120000     -33.75180000     -70.43850000
H      -49.16430000     -34.20040000     -70.19030000
H      -47.67830000     -34.55850000     -70.91920000
C      -45.30350000     -36.16320000     -70.58120000
H      -45.89470000     -36.98980000     -70.25230000
H      -45.94650000     -35.41520000     -71.07800000
C      -44.80090000     -35.44090000     -69.39950000
H      -45.63020000     -35.27190000     -68.58510000
H      -44.02280000     -36.05390000     -68.92910000
C      -47.40390000     -33.19510000     -69.25400000
H      -47.12140000     -33.94300000     -68.48500000
H      -48.05170000     -32.49920000     -68.67860000
C      -46.23190000     -32.37070000     -69.61100000
C      -46.43340000     -31.07390000     -69.85860000
C      -44.89020000     -32.83050000     -69.90950000
H      -47.33930000     -30.51860000     -69.74600000
C      -44.01810000     -31.78670000     -70.18920000
C      -44.13520000     -34.14140000     -69.73840000
C      -42.85090000     -33.96840000     -70.09010000
S      -44.94690000     -30.30320000     -70.32510000
S      -42.39770000     -32.29330000     -70.47270000
H      -42.15190000     -34.77790000     -70.03970000
