40
Properties=species:S:1:pos:R:3 #=T CELL(abcABC):=T 1.889726e+02=T 90.00000=T Traj:=T positionsangstrom=T Step:=T 0=T Bead:=T pbc="F F F"
C      -43.84060000     -33.57470000     -73.57030000
C      -44.79050000     -34.58580000     -73.22870000
C      -46.13490000     -34.27120000     -73.12310000
C      -46.55480000     -32.89780000     -73.29690000
C      -45.61930000     -31.92860000     -73.53790000
C      -44.30060000     -32.28010000     -73.76670000
H      -42.80730000     -33.96020000     -73.74610000
H      -46.90900000     -35.03240000     -72.82860000
H      -46.02320000     -30.92640000     -73.85030000
H      -43.65280000     -31.50210000     -74.20890000
C      -48.04170000     -32.51120000     -73.30210000
H      -48.45280000     -33.37580000     -73.87740000
H      -48.13830000     -31.58360000     -73.87440000
C      -44.46890000     -36.07050000     -73.18010000
H      -45.15050000     -36.64380000     -73.77150000
H      -43.47140000     -36.13790000     -73.64270000
S      -48.94020000     -32.42240000     -71.72920000
S      -44.37650000     -36.99620000     -71.56720000
C      -48.18080000     -33.80250000     -70.65910000
H      -49.00980000     -34.39560000     -70.22910000
H      -47.63080000     -34.43840000     -71.27750000
C      -45.51570000     -36.19170000     -70.37740000
H      -46.20840000     -36.92890000     -69.96350000
H      -46.17830000     -35.51870000     -70.87840000
C      -44.77080000     -35.44250000     -69.19940000
H      -45.56210000     -35.22090000     -68.46910000
H      -43.97330000     -36.08860000     -68.68480000
C      -47.38260000     -33.15210000     -69.45320000
H      -47.14540000     -33.99820000     -68.81400000
H      -48.01890000     -32.46960000     -68.92060000
C      -46.14850000     -32.40570000     -69.86750000
C      -46.11390000     -31.01970000     -69.97500000
C      -44.79280000     -32.89810000     -69.80390000
H      -46.99870000     -30.37240000     -69.96320000
C      -43.85280000     -31.90680000     -70.19850000
C      -44.11470000     -34.17530000     -69.71750000
C      -42.77490000     -34.10260000     -69.99410000
S      -44.56250000     -30.35660000     -70.28170000
S      -42.27340000     -32.47320000     -70.43090000
H      -42.14820000     -34.97880000     -69.94120000
