40
Properties=species:S:1:pos:R:3 #=T CELL(abcABC):=T 1.889726e+02=T 90.00000=T Traj:=T positionsangstrom=T Step:=T 0=T Bead:=T pbc="F F F"
C      -44.20630000     -34.54100000     -73.91380000
C      -45.27600000     -35.31220000     -73.47030000
C      -46.55560000     -34.69920000     -73.32650000
C      -46.82480000     -33.41810000     -73.80480000
C      -45.77530000     -32.71680000     -74.37280000
C      -44.50550000     -33.27550000     -74.43970000
H      -43.26400000     -34.89550000     -74.12790000
H      -47.40950000     -35.29160000     -73.01490000
H      -45.86010000     -31.68590000     -74.64170000
H      -43.76230000     -32.68590000     -74.85320000
C      -48.15110000     -32.74800000     -73.44510000
H      -48.83260000     -33.54780000     -73.34250000
H      -48.51000000     -32.12320000     -74.24550000
C      -45.02870000     -36.73830000     -73.02470000
H      -45.97250000     -37.28010000     -73.04430000
H      -44.26560000     -37.20630000     -73.66840000
S      -48.05780000     -31.81330000     -71.85630000
S      -44.53290000     -36.90140000     -71.14500000
C      -48.12240000     -33.00430000     -70.48780000
H      -49.19750000     -33.26700000     -70.26360000
H      -47.64510000     -33.99050000     -70.79740000
C      -45.84790000     -36.01400000     -70.17760000
H      -46.60820000     -36.78250000     -69.82970000
H      -46.35290000     -35.30240000     -70.85400000
C      -45.29120000     -35.17080000     -69.03740000
H      -46.04240000     -34.82690000     -68.31310000
H      -44.60600000     -35.75750000     -68.40640000
C      -47.43180000     -32.25170000     -69.34110000
H      -47.40150000     -32.93580000     -68.50780000
H      -47.99180000     -31.39970000     -68.95580000
C      -46.00650000     -31.79340000     -69.64660000
C      -45.74520000     -30.49950000     -70.00810000
C      -44.79360000     -32.61860000     -69.68970000
H      -46.42120000     -29.63240000     -70.04670000
C      -43.64620000     -31.85170000     -70.03960000
C      -44.29860000     -34.01910000     -69.41570000
C      -42.94770000     -34.19470000     -69.64520000
S      -44.08300000     -30.17150000     -70.37930000
S      -42.17860000     -32.74230000     -70.25730000
H      -42.28680000     -35.02010000     -69.50000000
