40
Properties=species:S:1:pos:R:3 #=T CELL(abcABC):=T 1.889726e+02=T 90.00000=T Traj:=T positionsangstrom=T Step:=T 0=T Bead:=T pbc="F F F"
C      -44.44720000     -35.04870000     -73.75140000
C      -45.60770000     -35.56840000     -73.23660000
C      -46.78530000     -34.84490000     -73.27330000
C      -46.78040000     -33.47190000     -73.75790000
C      -45.58290000     -32.99290000     -74.19830000
C      -44.44840000     -33.76880000     -74.28640000
H      -43.53300000     -35.66370000     -73.71700000
H      -47.64730000     -35.37290000     -73.00170000
H      -45.43810000     -31.95230000     -74.42690000
H      -43.43590000     -33.32720000     -74.60560000
C      -48.06980000     -32.72240000     -73.78040000
H      -48.84590000     -33.47780000     -73.63110000
H      -48.14750000     -32.17000000     -74.69190000
C      -45.54530000     -36.93590000     -72.64900000
H      -46.56390000     -37.29960000     -72.65370000
H      -44.84180000     -37.57580000     -73.24010000
S      -48.12310000     -31.55070000     -72.25340000
S      -44.62470000     -36.81350000     -71.02080000
C      -47.99740000     -32.66720000     -70.82470000
H      -48.99560000     -32.92080000     -70.65100000
H      -47.47390000     -33.55060000     -71.10990000
C      -45.94210000     -35.86560000     -70.15710000
H      -46.59880000     -36.68950000     -69.76280000
H      -46.40390000     -35.30900000     -70.91010000
C      -45.44170000     -34.95220000     -69.03170000
H      -46.30640000     -34.40540000     -68.58100000
H      -45.02610000     -35.67290000     -68.33110000
C      -47.31320000     -32.01910000     -69.65620000
H      -47.49870000     -32.51490000     -68.72460000
H      -47.83150000     -31.05350000     -69.57610000
C      -45.85410000     -31.66600000     -69.92410000
C      -45.44830000     -30.35140000     -70.04940000
C      -44.69830000     -32.55780000     -69.96440000
H      -46.17970000     -29.60760000     -70.22300000
C      -43.54030000     -31.86150000     -70.13460000
C      -44.48160000     -33.97730000     -69.53820000
C      -43.09100000     -34.21030000     -69.57250000
S      -43.75700000     -30.16000000     -70.26280000
S      -42.08310000     -32.87120000     -69.89470000
H      -42.68520000     -35.14730000     -69.17670000
