40
Properties=species:S:1:pos:R:3 #=T CELL(abcABC):=T 1.889726e+02=T 90.00000=T Traj:=T positionsangstrom=T Step:=T 0=T Bead:=T pbc="F F F"
C      -46.95720000     -35.35250000     -74.62390000
C      -47.13750000     -35.11500000     -73.21960000
C      -45.96630000     -35.29720000     -72.47940000
C      -44.71800000     -35.73610000     -72.94140000
C      -44.61270000     -35.95400000     -74.33830000
C      -45.77480000     -35.86050000     -75.18190000
H      -47.83420000     -35.38080000     -75.22450000
H      -46.14660000     -35.04410000     -71.43680000
H      -43.66210000     -36.27320000     -74.75180000
H      -45.78260000     -35.96790000     -76.23520000
C      -43.56310000     -35.82880000     -72.00270000
H      -43.07000000     -36.75000000     -72.25360000
H      -44.01390000     -35.67560000     -71.06500000
C      -48.32050000     -34.53210000     -72.54070000
H      -49.21780000     -34.99290000     -73.05300000
H      -48.35410000     -34.69630000     -71.45190000
S      -42.30220000     -34.61630000     -72.49150000
S      -48.50130000     -32.67520000     -72.82410000
C      -43.27200000     -33.06940000     -72.76750000
H      -42.89290000     -32.63200000     -73.72900000
H      -44.32440000     -33.41330000     -72.91090000
C      -46.66490000     -32.10390000     -72.65100000
H      -46.22310000     -31.94190000     -73.64210000
H      -46.22850000     -33.03020000     -72.33310000
C      -46.54110000     -31.03170000     -71.67210000
H      -45.72080000     -30.41160000     -71.97240000
H      -47.45900000     -30.39260000     -71.70430000
C      -43.15220000     -32.01270000     -71.63890000
H      -43.76210000     -31.27540000     -72.07750000
H      -42.12460000     -31.60120000     -71.54290000
C      -43.66660000     -32.33490000     -70.29600000
C      -42.78120000     -32.75410000     -69.36530000
C      -44.94840000     -32.03330000     -69.76490000
H      -41.77750000     -33.07010000     -69.55730000
C      -44.99340000     -32.32530000     -68.42240000
C      -46.21370000     -31.47660000     -70.29010000
C      -47.16370000     -31.46160000     -69.27500000
S      -43.45220000     -32.83200000     -67.71990000
S      -46.58910000     -32.03910000     -67.72350000
H      -48.19690000     -31.08950000     -69.36460000
