40
Properties=species:S:1:pos:R:3 #=T CELL(abcABC):=T 1.889726e+02=T 90.00000=T Traj:=T positionsangstrom=T Step:=T 0=T Bead:=T pbc="F F F"
C      -47.03000000     -35.47630000     -74.62970000
C      -47.20020000     -35.19720000     -73.27150000
C      -46.02430000     -35.21180000     -72.49870000
C      -44.75900000     -35.57690000     -72.99640000
C      -44.69560000     -35.95920000     -74.32730000
C      -45.80060000     -35.88790000     -75.13950000
H      -47.87760000     -35.31980000     -75.36150000
H      -46.21090000     -34.93200000     -71.44030000
H      -43.80330000     -36.21600000     -74.80340000
H      -45.73280000     -36.09250000     -76.17660000
C      -43.46170000     -35.81000000     -72.17990000
H      -43.07110000     -36.79950000     -72.31740000
H      -43.63630000     -35.83210000     -71.07370000
C      -48.53180000     -34.63920000     -72.74370000
H      -49.39400000     -35.15450000     -73.20930000
H      -48.62090000     -34.84820000     -71.68870000
S      -42.12220000     -34.52080000     -72.46220000
S      -48.62880000     -32.75310000     -72.81810000
C      -43.04210000     -32.94080000     -72.71330000
H      -42.75690000     -32.47310000     -73.63780000
H      -44.10280000     -33.08730000     -72.79490000
C      -46.98700000     -31.92730000     -72.78400000
H      -47.02420000     -31.31390000     -73.72380000
H      -46.15270000     -32.66270000     -72.94340000
C      -46.62500000     -31.05170000     -71.59250000
H      -45.73190000     -30.42890000     -71.81820000
H      -47.43830000     -30.32620000     -71.66030000
C      -43.01760000     -31.75770000     -71.63930000
H      -43.64320000     -30.93420000     -72.06710000
H      -42.02400000     -31.39170000     -71.39100000
C      -43.60400000     -32.17020000     -70.30440000
C      -42.68930000     -32.60360000     -69.36330000
C      -44.93010000     -31.99560000     -69.76640000
H      -41.59590000     -32.72890000     -69.52310000
C      -44.97990000     -32.39560000     -68.41630000
C      -46.26450000     -31.53200000     -70.16750000
C      -47.19860000     -31.58040000     -69.11120000
S      -43.49080000     -32.98510000     -67.80250000
S      -46.44550000     -32.17160000     -67.59550000
H      -48.29120000     -31.32050000     -69.17110000
