40
Properties=species:S:1:pos:R:3 #=T CELL(abcABC):=T 1.889726e+02=T 90.00000=T Traj:=T positionsangstrom=T Step:=T 0=T Bead:=T pbc="F F F"
C      -44.39910000     -34.99330000     -73.50040000
C      -45.59030000     -35.53110000     -73.08650000
C      -46.78680000     -34.71140000     -73.23960000
C      -46.75760000     -33.34290000     -73.63910000
C      -45.48260000     -32.85190000     -74.04770000
C      -44.39020000     -33.70740000     -74.04910000
H      -43.45940000     -35.54180000     -73.52620000
H      -47.72920000     -35.26190000     -72.98030000
H      -45.26290000     -31.82130000     -74.38060000
H      -43.43740000     -33.32190000     -74.26870000
C      -48.06410000     -32.61520000     -73.66060000
H      -48.86210000     -33.41520000     -73.53170000
H      -48.10010000     -31.96470000     -74.52470000
C      -45.75990000     -36.77820000     -72.30850000
H      -46.89470000     -36.97690000     -72.08770000
H      -45.40620000     -37.64520000     -72.79010000
S      -48.20370000     -31.50330000     -72.28960000
S      -45.00520000     -36.80970000     -70.63480000
C      -48.13940000     -32.53880000     -70.78820000
H      -49.13430000     -32.91350000     -70.37780000
H      -47.76540000     -33.53220000     -71.07840000
C      -46.16330000     -35.71650000     -69.73890000
H      -46.96160000     -36.13320000     -69.18770000
H      -46.54290000     -35.05810000     -70.43100000
C      -45.31360000     -34.88970000     -68.72670000
H      -46.07580000     -34.43290000     -68.03110000
H      -44.75850000     -35.61480000     -68.12510000
C      -47.23370000     -31.89090000     -69.75740000
H      -47.32040000     -32.42220000     -68.78150000
H      -47.65260000     -30.87710000     -69.62760000
C      -45.67560000     -31.68850000     -70.15330000
C      -45.30300000     -30.54870000     -70.72830000
C      -44.60940000     -32.63390000     -69.94140000
H      -46.01720000     -29.75690000     -71.02180000
C      -43.42520000     -32.01360000     -70.32440000
C      -44.36940000     -33.90040000     -69.35660000
C      -43.02130000     -34.25600000     -69.36680000
S      -43.53560000     -30.43800000     -70.98980000
S      -42.04800000     -33.03260000     -70.14000000
H      -42.59780000     -35.08840000     -68.82090000
