40
Properties=species:S:1:pos:R:3 #=T CELL(abcABC):=T 1.889726e+02=T 90.00000=T Traj:=T positionsangstrom=T Step:=T 0=T Bead:=T pbc="F F F"
C      -48.08350000     -35.77860000     -71.76540000
C      -46.97250000     -36.33890000     -71.12250000
C      -46.67960000     -36.00980000     -69.82720000
C      -47.49800000     -35.08270000     -69.14480000
C      -48.52630000     -34.44800000     -69.83930000
C      -48.83250000     -34.74580000     -71.20900000
H      -48.20620000     -36.16050000     -72.81220000
H      -45.89350000     -36.49020000     -69.26730000
H      -49.15990000     -33.69750000     -69.36110000
H      -49.64640000     -34.25870000     -71.68770000
C      -47.13640000     -34.71580000     -67.71850000
H      -47.12520000     -35.56780000     -67.02360000
H      -47.83880000     -34.03410000     -67.33200000
C      -46.03790000     -37.24020000     -71.90730000
H      -46.10630000     -38.24280000     -71.39140000
H      -46.30220000     -37.37990000     -73.00050000
S      -45.47610000     -33.91640000     -67.69150000
S      -44.20000000     -36.67120000     -71.85120000
C      -45.65770000     -32.47460000     -68.85250000
H      -46.67050000     -32.15430000     -68.84320000
H      -45.03130000     -31.70780000     -68.41550000
C      -44.38460000     -35.06400000     -72.92730000
H      -45.34770000     -34.61180000     -72.57200000
H      -44.56840000     -35.37120000     -73.92690000
C      -43.21380000     -34.18910000     -72.71720000
H      -42.95670000     -34.19610000     -71.60590000
H      -42.30750000     -34.51470000     -73.16880000
C      -45.24400000     -32.86250000     -70.25480000
H      -45.88600000     -33.58130000     -70.72070000
H      -44.26320000     -33.31510000     -70.24090000
C      -45.18200000     -31.67650000     -71.21100000
C      -45.82510000     -30.47610000     -71.08190000
C      -44.21620000     -31.66810000     -72.32640000
H      -46.70140000     -30.20720000     -70.41680000
C      -44.04080000     -30.37330000     -72.85460000
C      -43.44370000     -32.72360000     -73.05360000
C      -42.75130000     -32.16610000     -74.09170000
S      -45.22780000     -29.27760000     -72.23810000
S      -42.91910000     -30.43260000     -74.18170000
H      -42.18230000     -32.73640000     -74.79930000
