40
Properties=species:S:1:pos:R:3 #=T CELL(abcABC):=T 1.889726e+02=T 90.00000=T Traj:=T positionsangstrom=T Step:=T 0=T Bead:=T pbc="F F F"
C      -44.40660000     -34.71650000     -73.13170000
C      -45.48530000     -35.42330000     -72.58530000
C      -46.74250000     -34.84380000     -72.61570000
C      -46.84450000     -33.56790000     -73.22290000
C      -45.74560000     -32.93320000     -73.78000000
C      -44.45500000     -33.49670000     -73.76970000
H      -43.53000000     -35.30140000     -73.11760000
H      -47.59260000     -35.49850000     -72.35170000
H      -45.91110000     -31.93460000     -74.15630000
H      -43.50560000     -33.04110000     -74.10780000
C      -48.14760000     -32.83730000     -73.23340000
H      -48.95600000     -33.51680000     -73.13460000
H      -48.26730000     -32.48110000     -74.21970000
C      -45.35110000     -36.71590000     -71.81730000
H      -45.91530000     -37.49240000     -72.21450000
H      -44.28050000     -37.12130000     -71.88200000
S      -48.30140000     -31.50040000     -71.96290000
S      -45.65220000     -36.89710000     -70.02140000
C      -47.89290000     -32.35680000     -70.38410000
H      -48.86610000     -32.52050000     -69.79730000
H      -47.62920000     -33.45980000     -70.58230000
C      -46.26890000     -35.31780000     -69.26010000
H      -46.84100000     -35.74530000     -68.40450000
H      -46.96180000     -34.81380000     -69.92250000
C      -45.20020000     -34.39650000     -68.65880000
H      -45.62840000     -33.60450000     -68.02800000
H      -44.65320000     -34.97450000     -67.89250000
C      -46.78330000     -31.60790000     -69.59700000
H      -46.51980000     -32.09450000     -68.64140000
H      -47.17910000     -30.65490000     -69.26630000
C      -45.47800000     -31.44770000     -70.39030000
C      -45.22430000     -30.56720000     -71.40620000
C      -44.44120000     -32.55220000     -70.44810000
H      -45.85310000     -29.72730000     -71.76180000
C      -43.30800000     -32.21600000     -71.15180000
C      -44.24110000     -33.75140000     -69.66120000
C      -42.98320000     -34.31900000     -69.80070000
S      -43.50990000     -30.63300000     -71.89680000
S      -41.98400000     -33.40820000     -70.88060000
H      -42.74580000     -35.32190000     -69.44700000
