40
Properties=species:S:1:pos:R:3 #=T CELL(abcABC):=T 1.889726e+02=T 90.00000=T Traj:=T positionsangstrom=T Step:=T 0=T Bead:=T pbc="F F F"
C      -44.43300000     -34.74050000     -73.00900000
C      -45.48590000     -35.27340000     -72.30580000
C      -46.76490000     -34.73760000     -72.45670000
C      -46.91190000     -33.52920000     -73.20710000
C      -45.82190000     -33.05900000     -73.91700000
C      -44.56870000     -33.62740000     -73.83310000
H      -43.45880000     -35.20950000     -72.81610000
H      -47.56660000     -35.17120000     -71.93760000
H      -45.95050000     -32.14180000     -74.57740000
H      -43.67190000     -33.21770000     -74.30700000
C      -48.23630000     -32.91740000     -73.33070000
H      -49.10610000     -33.61220000     -73.04730000
H      -48.35200000     -32.44120000     -74.29610000
C      -45.30980000     -36.63890000     -71.71920000
H      -46.11270000     -37.32090000     -72.20570000
H      -44.38110000     -36.96010000     -72.10940000
S      -48.49530000     -31.48340000     -72.09320000
S      -45.59330000     -37.04930000     -69.86690000
C      -47.96130000     -32.22650000     -70.50290000
H      -48.79660000     -32.20960000     -69.90830000
H      -47.63180000     -33.22110000     -70.73190000
C      -46.13750000     -35.38340000     -69.19650000
H      -46.87950000     -35.64820000     -68.43620000
H      -46.68670000     -34.89340000     -70.01910000
C      -45.03290000     -34.51020000     -68.64460000
H      -45.50710000     -33.73580000     -68.03900000
H      -44.43100000     -35.13040000     -67.99220000
C      -46.81660000     -31.48100000     -69.73570000
H      -46.67500000     -31.97000000     -68.72260000
H      -47.20020000     -30.44980000     -69.63690000
C      -45.47890000     -31.48740000     -70.36430000
C      -45.08100000     -30.56100000     -71.28890000
C      -44.42220000     -32.47260000     -70.18960000
H      -45.69320000     -29.77320000     -71.62020000
C      -43.31480000     -32.17310000     -71.04500000
C      -44.16790000     -33.76060000     -69.61840000
C      -42.90700000     -34.27050000     -69.91160000
S      -43.45240000     -30.75710000     -71.97410000
S      -41.96690000     -33.26170000     -71.03370000
H      -42.56310000     -35.19580000     -69.56790000
