40
Properties=species:S:1:pos:R:3 #=T CELL(abcABC):=T 1.889726e+02=T 90.00000=T Traj:=T positionsangstrom=T Step:=T 0=T Bead:=T pbc="F F F"
C      -44.80980000     -35.21290000     -72.55710000
C      -45.78950000     -35.77170000     -71.78480000
C      -47.12850000     -35.38200000     -71.95780000
C      -47.38940000     -34.34220000     -72.85410000
C      -46.39670000     -33.75640000     -73.63220000
C      -45.09020000     -34.26520000     -73.57110000
H      -43.79800000     -35.59040000     -72.43580000
H      -47.95020000     -35.83200000     -71.35830000
H      -46.71080000     -32.93440000     -74.36830000
H      -44.25040000     -33.81320000     -74.06450000
C      -48.69710000     -33.54740000     -72.82670000
H      -49.35900000     -34.21190000     -72.27510000
H      -49.19000000     -33.37480000     -73.83860000
C      -45.42140000     -36.76400000     -70.80420000
H      -46.36550000     -37.15220000     -70.38800000
H      -45.00620000     -37.69110000     -71.28230000
S      -48.40810000     -31.82060000     -72.13300000
S      -44.49970000     -36.28400000     -69.28480000
C      -47.83220000     -32.29440000     -70.45530000
H      -48.64920000     -32.31960000     -69.64170000
H      -47.56630000     -33.39350000     -70.46310000
C      -45.46540000     -34.80920000     -68.66100000
H      -45.95230000     -35.04430000     -67.70180000
H      -46.28080000     -34.50250000     -69.35850000
C      -44.51970000     -33.60190000     -68.40940000
H      -45.20390000     -32.82270000     -68.06540000
H      -43.73540000     -33.75620000     -67.71030000
C      -46.73550000     -31.38280000     -69.93400000
H      -46.43850000     -31.58570000     -68.88990000
H      -47.17860000     -30.31920000     -70.03440000
C      -45.53830000     -31.42050000     -70.83100000
C      -45.55260000     -30.84650000     -72.03940000
C      -44.34480000     -32.25520000     -70.65990000
H      -46.29990000     -30.14690000     -72.45190000
C      -43.43970000     -31.94870000     -71.69380000
C      -43.75480000     -33.13300000     -69.70540000
C      -42.49390000     -33.60210000     -69.99190000
S      -44.06140000     -30.99210000     -72.97130000
S      -41.92030000     -32.87920000     -71.48610000
H      -41.97170000     -34.40940000     -69.50730000
