40
Properties=species:S:1:pos:R:3 #=T CELL(abcABC):=T 1.889726e+02=T 90.00000=T Traj:=T positionsangstrom=T Step:=T 0=T Bead:=T pbc="F F F"
C      -44.82080000     -35.29860000     -72.52400000
C      -45.82930000     -35.71920000     -71.60380000
C      -47.14620000     -35.35820000     -71.81540000
C      -47.40910000     -34.38930000     -72.76970000
C      -46.42230000     -33.90270000     -73.63890000
C      -45.11460000     -34.43440000     -73.58190000
H      -43.72680000     -35.63290000     -72.44810000
H      -47.90210000     -35.81780000     -71.09890000
H      -46.69870000     -33.07780000     -74.30410000
H      -44.35310000     -34.17250000     -74.35750000
C      -48.75070000     -33.75480000     -72.71530000
H      -49.41290000     -34.38260000     -72.18930000
H      -49.27030000     -33.63450000     -73.68620000
C      -45.50180000     -36.79860000     -70.62970000
H      -46.32920000     -37.41660000     -70.39210000
H      -44.74750000     -37.38430000     -71.21730000
S      -48.42880000     -32.00880000     -72.04340000
S      -44.58510000     -36.12510000     -69.19680000
C      -47.88150000     -32.35810000     -70.33270000
H      -48.71220000     -32.40920000     -69.61240000
H      -47.44730000     -33.33340000     -70.44900000
C      -45.35370000     -34.59250000     -68.77200000
H      -46.02630000     -34.77270000     -67.90920000
H      -45.91580000     -34.15030000     -69.59830000
C      -44.35950000     -33.51180000     -68.47960000
H      -45.01350000     -32.73240000     -68.05860000
H      -43.65440000     -33.87940000     -67.71460000
C      -46.72910000     -31.36840000     -70.02060000
H      -46.37760000     -31.56370000     -69.02190000
H      -47.13580000     -30.32810000     -70.11870000
C      -45.50440000     -31.35150000     -70.91150000
C      -45.46210000     -30.58420000     -72.01600000
C      -44.29100000     -32.20840000     -70.77230000
H      -46.19880000     -29.88230000     -72.34320000
C      -43.42840000     -32.00050000     -71.80220000
C      -43.67480000     -33.02680000     -69.77070000
C      -42.42440000     -33.50150000     -70.02260000
S      -44.08660000     -30.96190000     -73.08490000
S      -41.93570000     -32.95210000     -71.61760000
H      -41.83880000     -34.14960000     -69.43330000
