40
Properties=species:S:1:pos:R:3 #=T CELL(abcABC):=T 1.889726e+02=T 90.00000=T Traj:=T positionsangstrom=T Step:=T 0=T Bead:=T pbc="F F F"
C      -45.25930000     -36.01470000     -74.19000000
C      -45.83120000     -35.65490000     -72.92450000
C      -44.99210000     -34.87720000     -72.03000000
C      -43.64390000     -34.57900000     -72.37240000
C      -43.13100000     -34.93100000     -73.62720000
C      -43.91730000     -35.69760000     -74.47850000
H      -45.66820000     -36.85380000     -74.80300000
H      -45.31930000     -34.54250000     -71.07190000
H      -42.08090000     -34.68810000     -73.88490000
H      -43.38530000     -36.13160000     -75.31930000
C      -42.78240000     -33.76940000     -71.41900000
H      -41.83770000     -34.29100000     -71.30730000
H      -43.23260000     -33.38630000     -70.44180000
C      -47.23720000     -36.02990000     -72.73220000
H      -47.50890000     -36.71910000     -73.52240000
H      -47.41400000     -36.57720000     -71.85900000
S      -42.25270000     -32.17140000     -72.23330000
S      -48.64480000     -34.70860000     -72.73030000
C      -43.79310000     -31.39560000     -72.84060000
H      -43.47020000     -30.83390000     -73.71150000
H      -44.40360000     -32.18400000     -73.18970000
C      -47.67780000     -33.17960000     -72.95400000
H      -48.06110000     -32.50530000     -73.74780000
H      -46.62700000     -33.46250000     -73.14990000
C      -47.70240000     -32.16150000     -71.74120000
H      -47.19710000     -31.24590000     -72.17290000
H      -48.72680000     -31.85680000     -71.51170000
C      -44.63960000     -30.57100000     -71.83010000
H      -45.62160000     -30.35620000     -72.28050000
H      -44.15480000     -29.56890000     -71.57310000
C      -44.73980000     -31.28000000     -70.48980000
C      -43.70130000     -31.17220000     -69.63160000
C      -45.78070000     -32.16220000     -70.00920000
H      -42.84540000     -30.54850000     -69.83780000
C      -45.44080000     -32.70430000     -68.73720000
C      -47.09600000     -32.64710000     -70.46390000
C      -47.66700000     -33.46530000     -69.55170000
S      -43.85310000     -32.31040000     -68.24360000
S      -46.64530000     -33.83790000     -68.12970000
H      -48.55970000     -34.02630000     -69.79400000
