40
Properties=species:S:1:pos:R:3 #=T CELL(abcABC):=T 1.889726e+02=T 90.00000=T Traj:=T positionsangstrom=T Step:=T 0=T Bead:=T pbc="F F F"
C      -45.11140000     -36.12960000     -74.24120000
C      -45.72180000     -35.75270000     -73.01280000
C      -45.03760000     -34.88200000     -72.10240000
C      -43.75850000     -34.50840000     -72.39480000
C      -43.10320000     -34.91700000     -73.58580000
C      -43.83340000     -35.67080000     -74.51720000
H      -45.83210000     -36.57670000     -74.92390000
H      -45.44870000     -34.61430000     -71.15760000
H      -42.13080000     -34.42640000     -73.79270000
H      -43.28670000     -35.98380000     -75.39700000
C      -42.88790000     -33.72360000     -71.38520000
H      -42.01370000     -34.39150000     -71.10650000
H      -43.41880000     -33.47810000     -70.47530000
C      -47.05340000     -36.22290000     -72.51390000
H      -47.29050000     -37.10350000     -73.14080000
H      -47.07610000     -36.41540000     -71.38570000
S      -42.39630000     -32.10750000     -72.16590000
S      -48.34850000     -34.85990000     -72.80970000
C      -44.03550000     -31.39710000     -72.78070000
H      -43.93560000     -30.94990000     -73.78410000
H      -44.74680000     -32.23120000     -72.94590000
C      -47.53160000     -33.18550000     -73.00930000
H      -47.91270000     -32.89390000     -73.96570000
H      -46.45390000     -33.24310000     -73.20390000
C      -47.79150000     -32.26320000     -71.83140000
H      -47.53230000     -31.20520000     -72.09280000
H      -48.81980000     -32.19330000     -71.73610000
C      -44.64160000     -30.47700000     -71.71040000
H      -45.61650000     -30.12260000     -71.99940000
H      -44.05770000     -29.51670000     -71.62260000
C      -44.75190000     -31.22180000     -70.41360000
C      -43.74970000     -31.10160000     -69.55250000
C      -45.74040000     -32.19680000     -70.06350000
H      -43.02730000     -30.33560000     -69.51980000
C      -45.45310000     -32.75770000     -68.83540000
C      -47.07490000     -32.61830000     -70.52180000
C      -47.58370000     -33.60170000     -69.74980000
S      -44.01200000     -32.08700000     -68.08070000
S      -46.66950000     -33.85330000     -68.24080000
H      -48.59250000     -33.93560000     -69.82330000
