40
Properties=species:S:1:pos:R:3 #=T CELL(abcABC):=T 1.889726e+02=T 90.00000=T Traj:=T positionsangstrom=T Step:=T 0=T Bead:=T pbc="F F F"
C      -45.14030000     -36.18060000     -74.17990000
C      -45.54450000     -35.90650000     -72.88570000
C      -44.64680000     -35.24280000     -72.03670000
C      -43.39060000     -34.66550000     -72.45720000
C      -42.95150000     -34.99530000     -73.78940000
C      -43.81890000     -35.79820000     -74.60680000
H      -45.81240000     -36.73040000     -74.81760000
H      -44.96680000     -34.98510000     -71.01630000
H      -41.93440000     -34.68290000     -74.02340000
H      -43.57380000     -35.94820000     -75.64850000
C      -42.61390000     -33.70150000     -71.59580000
H      -41.64560000     -34.09090000     -71.27790000
H      -43.06560000     -33.64980000     -70.61350000
C      -46.98090000     -36.17170000     -72.54970000
H      -47.28850000     -37.04710000     -73.11350000
H      -47.00690000     -36.40910000     -71.49110000
S      -42.37150000     -31.95050000     -72.18040000
S      -48.24010000     -34.87330000     -73.00270000
C      -44.07790000     -31.41600000     -72.74110000
H      -43.85990000     -30.73980000     -73.54960000
H      -44.64300000     -32.31100000     -73.01150000
C      -47.28600000     -33.22100000     -72.99740000
H      -47.49440000     -32.91180000     -74.06140000
H      -46.21900000     -33.52200000     -72.95500000
C      -47.72450000     -32.30230000     -71.89280000
H      -47.39470000     -31.25480000     -72.15920000
H      -48.86860000     -32.25920000     -71.85850000
C      -44.84070000     -30.48870000     -71.68340000
H      -45.85530000     -30.34430000     -72.10930000
H      -44.33880000     -29.53360000     -71.57680000
C      -45.01600000     -31.05230000     -70.32230000
C      -44.18150000     -30.76690000     -69.29740000
C      -45.96670000     -32.07460000     -69.92960000
H      -43.35090000     -30.03490000     -69.23530000
C      -45.66270000     -32.64620000     -68.68090000
C      -47.17750000     -32.66910000     -70.50300000
C      -47.57520000     -33.79350000     -69.77020000
S      -44.29060000     -31.87860000     -67.92660000
S      -46.66480000     -33.99780000     -68.28730000
H      -48.55920000     -34.22340000     -69.98170000
