40
Properties=species:S:1:pos:R:3 #=T CELL(abcABC):=T 1.889726e+02=T 90.00000=T Traj:=T positionsangstrom=T Step:=T 0=T Bead:=T pbc="F F F"
C      -41.54870000     -35.09350000     -72.44640000
C      -42.74660000     -34.97540000     -73.12680000
C      -43.18540000     -33.70640000     -73.56620000
C      -42.41420000     -32.54280000     -73.27370000
C      -41.24810000     -32.72630000     -72.52110000
C      -40.86240000     -33.92580000     -72.01130000
H      -41.23930000     -36.04230000     -71.94980000
H      -44.09140000     -33.72500000     -74.18640000
H      -40.78100000     -31.77280000     -72.11140000
H      -40.00310000     -34.04290000     -71.39990000
C      -42.88790000     -31.21130000     -73.77560000
H      -43.60930000     -31.39280000     -74.59380000
H      -42.09460000     -30.61590000     -74.20060000
C      -43.68720000     -36.14760000     -73.48060000
H      -44.45380000     -35.68240000     -74.16370000
H      -43.13380000     -36.85400000     -74.09540000
S      -43.44390000     -30.13270000     -72.35690000
S      -44.47040000     -37.13730000     -72.12430000
C      -44.65640000     -31.32520000     -71.43180000
H      -43.96410000     -32.09170000     -71.09640000
H      -44.77830000     -30.80240000     -70.46740000
C      -45.84100000     -36.09670000     -71.56560000
H      -46.67720000     -36.84740000     -71.19830000
H      -46.25420000     -35.62790000     -72.43240000
C      -45.57070000     -35.14820000     -70.39170000
H      -45.23530000     -35.79900000     -69.57010000
H      -44.65440000     -34.46870000     -70.57870000
C      -45.83120000     -31.96530000     -72.15440000
H      -45.62650000     -32.93480000     -72.62660000
H      -46.09640000     -31.46390000     -73.07740000
C      -47.01540000     -32.02840000     -71.13940000
C      -47.85450000     -31.00790000     -70.95370000
C      -47.27460000     -33.11210000     -70.13790000
H      -47.79150000     -30.12480000     -71.57510000
C      -48.37160000     -32.77210000     -69.33300000
C      -46.77650000     -34.43500000     -69.86490000
C      -47.40910000     -35.04880000     -68.84120000
S      -49.05180000     -31.23610000     -69.65330000
S      -48.69690000     -33.95540000     -68.13120000
H      -47.27050000     -35.88500000     -68.23070000
