40
Properties=species:S:1:pos:R:3 #=T CELL(abcABC):=T 1.889726e+02=T 90.00000=T Traj:=T positionsangstrom=T Step:=T 0=T Bead:=T pbc="F F F"
C      -41.87700000     -35.19410000     -72.32110000
C      -42.98200000     -35.04390000     -73.21270000
C      -43.34880000     -33.76290000     -73.63160000
C      -42.50750000     -32.66100000     -73.32770000
C      -41.40250000     -32.88110000     -72.52020000
C      -41.14690000     -34.11170000     -71.91340000
H      -41.68510000     -36.18310000     -71.92790000
H      -44.20670000     -33.62070000     -74.30310000
H      -40.74750000     -31.98540000     -72.43280000
H      -40.26360000     -34.33530000     -71.36540000
C      -42.91050000     -31.36600000     -73.83560000
H      -43.60480000     -31.43070000     -74.67870000
H      -42.05900000     -30.81910000     -74.22770000
C      -43.81150000     -36.24620000     -73.55260000
H      -44.56770000     -36.10970000     -74.20250000
H      -43.13540000     -37.07310000     -73.93960000
S      -43.70250000     -30.17110000     -72.62860000
S      -44.48670000     -37.06060000     -71.99500000
C      -44.37180000     -31.32120000     -71.37560000
H      -43.55010000     -32.00930000     -71.04950000
H      -44.80250000     -30.73900000     -70.51350000
C      -45.83260000     -35.81380000     -71.54050000
H      -46.75920000     -36.43040000     -71.26800000
H      -46.17700000     -35.32150000     -72.42410000
C      -45.31250000     -34.81610000     -70.52540000
H      -44.67040000     -35.26680000     -69.85600000
H      -44.70630000     -34.02020000     -70.99710000
C      -45.77210000     -31.90410000     -71.96840000
H      -45.56160000     -32.89410000     -72.35630000
H      -46.04790000     -31.19810000     -72.79180000
C      -46.93260000     -31.97680000     -71.01780000
C      -47.78690000     -30.96400000     -70.87180000
C      -47.16930000     -33.05690000     -70.07720000
H      -47.75280000     -30.12850000     -71.57750000
C      -48.27840000     -32.77010000     -69.28590000
C      -46.50110000     -34.25680000     -69.77500000
C      -47.07710000     -34.85950000     -68.70060000
S      -49.04740000     -31.30770000     -69.71310000
S      -48.50240000     -34.04580000     -68.12000000
H      -46.95160000     -35.80430000     -68.26670000
