40
Properties=species:S:1:pos:R:3 #=T CELL(abcABC):=T 1.889726e+02=T 90.00000=T Traj:=T positionsangstrom=T Step:=T 0=T Bead:=T pbc="F F F"
C      -48.07970000     -35.92330000     -71.76970000
C      -46.89260000     -36.36570000     -71.16380000
C      -46.66670000     -36.05880000     -69.82610000
C      -47.54640000     -35.27040000     -69.13810000
C      -48.71160000     -34.76010000     -69.76090000
C      -49.00000000     -35.14390000     -71.05200000
H      -48.23450000     -36.15770000     -72.79000000
H      -45.76740000     -36.35710000     -69.36320000
H      -49.40610000     -34.08810000     -69.21670000
H      -49.86390000     -34.67470000     -71.51040000
C      -47.23640000     -34.73860000     -67.74130000
H      -47.20720000     -35.51540000     -67.05200000
H      -47.94740000     -34.07440000     -67.36630000
C      -45.89530000     -37.09820000     -72.01050000
H      -45.92230000     -38.22730000     -71.86830000
H      -46.20540000     -36.98200000     -73.04540000
S      -45.53070000     -33.96300000     -67.73110000
S      -44.10990000     -36.58040000     -71.88120000
C      -45.66710000     -32.41100000     -68.82850000
H      -46.56780000     -31.89540000     -68.48780000
H      -44.83160000     -31.83390000     -68.53960000
C      -44.31950000     -34.94400000     -72.75850000
H      -45.25450000     -34.61020000     -72.27340000
H      -44.44190000     -35.09930000     -73.89890000
C      -43.16300000     -34.02460000     -72.32880000
H      -43.15390000     -33.75810000     -71.31460000
H      -42.16290000     -34.45090000     -72.66720000
C      -45.50750000     -32.76790000     -70.34450000
H      -46.45490000     -33.16050000     -70.73010000
H      -44.77420000     -33.52810000     -70.45580000
C      -45.15330000     -31.63300000     -71.23930000
C      -45.75740000     -30.40610000     -71.10860000
C      -44.16810000     -31.60420000     -72.30470000
H      -46.44950000     -30.13660000     -70.37960000
C      -44.03470000     -30.35520000     -72.95730000
C      -43.34100000     -32.65570000     -72.94900000
C      -42.65690000     -32.10510000     -73.98310000
S      -45.06890000     -29.20750000     -72.25270000
S      -43.07360000     -30.49560000     -74.36980000
H      -41.97310000     -32.54610000     -74.59170000
