40
Properties=species:S:1:pos:R:3 #=T CELL(abcABC):=T 1.889726e+02=T 90.00000=T Traj:=T positionsangstrom=T Step:=T 0=T Bead:=T pbc="F F F"
C      -45.41700000     -35.87540000     -72.02330000
C      -46.45440000     -35.85790000     -71.10720000
C      -47.62020000     -35.05500000     -71.37310000
C      -47.69690000     -34.27130000     -72.57330000
C      -46.58300000     -34.22330000     -73.41730000
C      -45.54160000     -35.11990000     -73.22250000
H      -44.51440000     -36.48390000     -71.82200000
H      -48.40100000     -34.89120000     -70.63300000
H      -46.45190000     -33.53090000     -74.28300000
H      -44.69720000     -35.16910000     -73.95740000
C      -48.80340000     -33.21100000     -72.66170000
H      -49.46180000     -33.32280000     -71.79020000
H      -49.41290000     -33.40520000     -73.57960000
C      -46.41680000     -36.62450000     -69.77280000
H      -47.43690000     -36.75160000     -69.31430000
H      -45.93130000     -37.61010000     -69.91440000
S      -47.98490000     -31.52680000     -72.68380000
S      -45.25010000     -35.82440000     -68.61860000
C      -47.36030000     -31.41330000     -70.93340000
H      -48.17330000     -31.15180000     -70.22880000
H      -47.00270000     -32.39450000     -70.56180000
C      -45.86910000     -34.10320000     -68.77060000
H      -46.69690000     -33.88190000     -68.11830000
H      -46.21080000     -33.94330000     -69.86320000
C      -44.79710000     -33.01320000     -68.61170000
H      -45.31310000     -32.06730000     -68.50620000
H      -44.37690000     -33.18660000     -67.59160000
C      -46.16360000     -30.46650000     -70.84700000
H      -46.02320000     -30.17290000     -69.79860000
H      -46.30300000     -29.55050000     -71.38650000
C      -44.87360000     -31.08930000     -71.43030000
C      -44.43040000     -30.60400000     -72.62030000
C      -43.91460000     -32.17310000     -70.87400000
H      -45.08920000     -29.84820000     -73.10330000
C      -42.99370000     -32.52690000     -71.89120000
C      -43.82560000     -33.04770000     -69.70010000
C      -42.87080000     -34.04180000     -69.91740000
S      -43.09380000     -31.51980000     -73.32580000
S      -42.03250000     -33.92320000     -71.48720000
H      -42.51990000     -34.79960000     -69.14810000
