40
Properties=species:S:1:pos:R:3 #=T CELL(abcABC):=T 1.889726e+02=T 90.00000=T Traj:=T positionsangstrom=T Step:=T 0=T Bead:=T pbc="F F F"
C      -45.38730000     -35.94630000     -72.10000000
C      -46.36670000     -35.80550000     -71.10930000
C      -47.45870000     -34.96830000     -71.34360000
C      -47.50630000     -34.14400000     -72.54770000
C      -46.46760000     -34.26090000     -73.48540000
C      -45.49610000     -35.23070000     -73.25040000
H      -44.61190000     -36.76600000     -72.03970000
H      -48.31470000     -35.10770000     -70.73270000
H      -46.49530000     -33.84120000     -74.45020000
H      -44.70160000     -35.31050000     -74.02450000
C      -48.62410000     -33.09690000     -72.65430000
H      -49.38950000     -33.12710000     -71.88800000
H      -49.09540000     -33.11760000     -73.65170000
C      -46.20500000     -36.64400000     -69.88650000
H      -47.22560000     -36.93070000     -69.60750000
H      -45.59770000     -37.52330000     -70.01820000
S      -47.87220000     -31.32680000     -72.57770000
S      -45.37780000     -35.74300000     -68.54510000
C      -47.33040000     -31.22890000     -70.77710000
H      -48.09520000     -30.63130000     -70.22790000
H      -47.22430000     -32.31590000     -70.57670000
C      -45.94660000     -34.02320000     -68.40770000
H      -46.43040000     -33.95960000     -67.37360000
H      -46.75590000     -33.89100000     -69.10900000
C      -44.78230000     -33.06150000     -68.50340000
H      -45.07130000     -32.00890000     -68.30490000
H      -43.99060000     -33.19140000     -67.79270000
C      -45.95660000     -30.47330000     -70.67880000
H      -45.68990000     -30.51500000     -69.58180000
H      -46.20410000     -29.45560000     -70.92390000
C      -44.86980000     -31.13720000     -71.55780000
C      -44.54540000     -30.67740000     -72.81680000
C      -44.09940000     -32.30300000     -71.06180000
H      -44.87840000     -29.80350000     -73.35910000
C      -43.16840000     -32.72770000     -72.00280000
C      -43.97990000     -33.02090000     -69.86710000
C      -42.92110000     -33.94120000     -69.90850000
S      -43.24410000     -31.68530000     -73.49390000
S      -42.11100000     -34.04840000     -71.44520000
H      -42.69470000     -34.68060000     -69.12010000
