40
Properties=species:S:1:pos:R:3 #=T CELL(abcABC):=T 1.889726e+02=T 90.00000=T Traj:=T positionsangstrom=T Step:=T 0=T Bead:=T pbc="F F F"
C      -44.09390000     -36.20610000     -73.32710000
C      -44.59990000     -35.75410000     -72.12670000
C      -43.93400000     -34.65950000     -71.47270000
C      -42.84430000     -34.05240000     -72.08690000
C      -42.31620000     -34.65550000     -73.23420000
C      -42.92320000     -35.71860000     -73.89170000
H      -44.60710000     -37.00520000     -73.84030000
H      -44.18670000     -34.34630000     -70.46790000
H      -41.41010000     -34.32160000     -73.73630000
H      -42.52100000     -36.33210000     -74.71470000
C      -42.14410000     -32.86570000     -71.55230000
H      -41.00800000     -32.95540000     -71.73740000
H      -42.24070000     -32.68360000     -70.46630000
C      -45.90360000     -36.35050000     -71.58810000
H      -45.85650000     -37.43310000     -71.54130000
H      -46.05750000     -35.95560000     -70.63330000
S      -42.62710000     -31.20140000     -72.20280000
S      -47.33060000     -35.95530000     -72.76690000
C      -44.23400000     -31.50690000     -73.02950000
H      -44.17520000     -30.84950000     -73.88780000
H      -44.32510000     -32.53290000     -73.32030000
C      -47.14540000     -34.22600000     -73.26060000
H      -47.49110000     -34.04300000     -74.24310000
H      -46.12490000     -33.96140000     -73.13420000
C      -47.94830000     -33.26590000     -72.33290000
H      -47.83890000     -32.30410000     -72.77380000
H      -48.99470000     -33.53360000     -72.32310000
C      -45.50300000     -30.89500000     -72.30010000
H      -46.39990000     -31.06880000     -72.94840000
H      -45.25580000     -29.82100000     -72.30470000
C      -45.65220000     -31.20570000     -70.86860000
C      -45.02870000     -30.48600000     -69.91880000
C      -46.48750000     -32.28340000     -70.34580000
H      -44.46100000     -29.63570000     -70.20190000
C      -46.25130000     -32.55120000     -68.99880000
C      -47.40280000     -33.25950000     -70.95420000
C      -47.96680000     -34.05700000     -70.02200000
S      -45.31740000     -31.23040000     -68.27410000
S      -47.25830000     -33.87800000     -68.38340000
H      -48.59510000     -34.93270000     -70.15220000
