40
Properties=species:S:1:pos:R:3 #=T CELL(abcABC):=T 1.889726e+02=T 90.00000=T Traj:=T positionsangstrom=T Step:=T 0=T Bead:=T pbc="F F F"
C      -47.97480000     -36.18450000     -71.92350000
C      -46.72400000     -36.51950000     -71.33860000
C      -46.45780000     -36.00910000     -70.01510000
C      -47.39080000     -35.20410000     -69.33310000
C      -48.60690000     -34.94100000     -69.99110000
C      -48.91440000     -35.40840000     -71.22920000
H      -48.16400000     -36.45030000     -72.91980000
H      -45.53680000     -36.25870000     -69.55270000
H      -49.27590000     -34.35580000     -69.49030000
H      -49.82030000     -35.16190000     -71.71390000
C      -47.20090000     -34.63810000     -67.94760000
H      -47.26290000     -35.42330000     -67.16860000
H      -47.99460000     -33.89270000     -67.83060000
C      -45.73050000     -37.28960000     -72.17310000
H      -45.65430000     -38.41260000     -71.94360000
H      -46.07250000     -37.25700000     -73.20960000
S      -45.67570000     -33.74840000     -67.63130000
S      -44.05370000     -36.65380000     -71.99590000
C      -45.66750000     -32.22640000     -68.62100000
H      -46.62610000     -31.74430000     -68.70760000
H      -44.94760000     -31.50820000     -68.23290000
C      -44.35200000     -34.98870000     -72.75560000
H      -45.35430000     -34.63840000     -72.55420000
H      -44.19990000     -35.03350000     -73.88160000
C      -43.29250000     -34.03990000     -72.24820000
H      -43.38080000     -34.00920000     -71.16280000
H      -42.22560000     -34.41080000     -72.39790000
C      -45.21980000     -32.61880000     -70.01070000
H      -46.01020000     -33.29220000     -70.40930000
H      -44.34390000     -33.15510000     -69.83860000
C      -45.01400000     -31.49970000     -70.99140000
C      -45.60250000     -30.29920000     -70.81050000
C      -44.33120000     -31.63380000     -72.27320000
H      -46.02070000     -30.06820000     -69.82130000
C      -44.37420000     -30.45360000     -73.01800000
C      -43.44050000     -32.58940000     -72.83190000
C      -42.86440000     -32.16980000     -73.99280000
S      -45.10070000     -29.10520000     -72.12840000
S      -43.24120000     -30.54810000     -74.39160000
H      -42.16220000     -32.76200000     -74.64650000
