40
Properties=species:S:1:pos:R:3 #=T CELL(abcABC):=T 1.889726e+02=T 90.00000=T Traj:=T positionsangstrom=T Step:=T 0=T Bead:=T pbc="F F F"
C      -43.71210000     -36.33340000     -73.14200000
C      -44.54760000     -35.62400000     -72.26970000
C      -44.05570000     -34.49550000     -71.67380000
C      -42.80760000     -33.94330000     -72.07780000
C      -41.99490000     -34.62340000     -72.99850000
C      -42.41550000     -35.89930000     -73.41660000
H      -43.99560000     -37.29800000     -73.41310000
H      -44.61110000     -34.06630000     -70.84440000
H      -40.95070000     -34.23720000     -73.11790000
H      -41.76050000     -36.38610000     -74.09070000
C      -42.33400000     -32.65510000     -71.47520000
H      -41.20370000     -32.69260000     -71.45490000
H      -42.61000000     -32.31400000     -70.44850000
C      -45.85400000     -36.25930000     -71.93350000
H      -45.90550000     -37.36320000     -71.95060000
H      -46.17860000     -35.94150000     -70.85910000
S      -42.75720000     -31.04320000     -72.44020000
S      -47.15500000     -35.89460000     -73.23970000
C      -44.52460000     -31.34090000     -72.82710000
H      -44.76140000     -30.98900000     -73.87550000
H      -44.71100000     -32.42200000     -72.80200000
C      -46.99860000     -34.06520000     -73.39090000
H      -47.19490000     -33.70870000     -74.41450000
H      -45.85440000     -33.84490000     -73.31170000
C      -47.84310000     -33.20940000     -72.45450000
H      -47.72000000     -32.16020000     -72.85180000
H      -48.94130000     -33.40510000     -72.53810000
C      -45.49600000     -30.51820000     -71.94550000
H      -46.50730000     -30.55900000     -72.49980000
H      -45.19120000     -29.44020000     -71.79680000
C      -45.75600000     -31.20520000     -70.56670000
C      -45.05240000     -30.70350000     -69.49810000
C      -46.54570000     -32.34750000     -70.27640000
H      -44.50500000     -29.75580000     -69.42170000
C      -46.36130000     -32.73380000     -68.94150000
C      -47.48320000     -33.22990000     -70.96180000
C      -48.12540000     -34.11430000     -70.15320000
S      -45.35210000     -31.61110000     -67.99650000
S      -47.44460000     -34.05190000     -68.51430000
H      -48.98140000     -34.77340000     -70.39890000
