40
Properties=species:S:1:pos:R:3 #=T CELL(abcABC):=T 1.889726e+02=T 90.00000=T Traj:=T positionsangstrom=T Step:=T 0=T Bead:=T pbc="F F F"
C      -43.65920000     -36.33080000     -73.23850000
C      -44.50420000     -35.75630000     -72.18740000
C      -44.09150000     -34.61760000     -71.49980000
C      -42.95330000     -33.94380000     -71.87280000
C      -42.09320000     -34.55840000     -72.80150000
C      -42.44300000     -35.77870000     -73.50370000
H      -44.04910000     -37.28810000     -73.73850000
H      -44.69720000     -34.14100000     -70.69150000
H      -41.14610000     -34.17160000     -72.99910000
H      -41.75480000     -36.21260000     -74.22430000
C      -42.61150000     -32.64960000     -71.18180000
H      -41.64680000     -32.52660000     -70.69850000
H      -43.26820000     -32.43190000     -70.27660000
C      -45.84730000     -36.37240000     -71.68490000
H      -45.73250000     -37.44800000     -71.61480000
H      -46.25500000     -36.05460000     -70.78680000
S      -42.66020000     -31.26190000     -72.41000000
S      -47.27990000     -35.96910000     -72.92990000
C      -44.42440000     -31.24980000     -72.84520000
H      -44.35620000     -30.85610000     -73.86570000
H      -44.82940000     -32.22920000     -73.04370000
C      -47.13540000     -34.19270000     -73.46270000
H      -47.50760000     -34.18060000     -74.50450000
H      -46.03880000     -33.96360000     -73.47090000
C      -47.84540000     -33.13700000     -72.50450000
H      -47.69160000     -32.08660000     -72.93100000
H      -48.93440000     -33.25570000     -72.58940000
C      -45.55000000     -30.54480000     -72.13890000
H      -46.38920000     -30.70990000     -72.88090000
H      -45.30000000     -29.48220000     -72.17100000
C      -45.72210000     -31.03650000     -70.76910000
C      -45.07540000     -30.55700000     -69.64390000
C      -46.49340000     -32.23920000     -70.40750000
H      -44.63750000     -29.55370000     -69.70130000
C      -46.36430000     -32.53800000     -69.04990000
C      -47.38960000     -33.20380000     -71.10620000
C      -47.90710000     -34.16070000     -70.26710000
S      -45.24400000     -31.59650000     -68.18280000
S      -47.41090000     -33.92910000     -68.58620000
H      -48.55440000     -34.97570000     -70.56060000
