40
Properties=species:S:1:pos:R:3 #=T CELL(abcABC):=T 1.889726e+02=T 90.00000=T Traj:=T positionsangstrom=T Step:=T 0=T Bead:=T pbc="F F F"
C      -47.14540000     -33.96870000     -75.35240000
C      -46.31270000     -32.86010000     -74.94010000
C      -44.98460000     -33.23960000     -74.65320000
C      -44.59710000     -34.60350000     -74.40990000
C      -45.43520000     -35.64830000     -74.70040000
C      -46.68340000     -35.29370000     -75.26590000
H      -48.16380000     -33.76770000     -75.69560000
H      -44.18230000     -32.47000000     -74.63990000
H      -45.14830000     -36.65170000     -74.49020000
H      -47.43320000     -35.99650000     -75.47210000
C      -43.06390000     -34.92230000     -74.14920000
H      -42.50640000     -35.11150000     -75.04300000
H      -43.19300000     -35.83510000     -73.53320000
C      -46.91020000     -31.51640000     -74.86510000
H      -46.37200000     -30.83920000     -75.55290000
H      -47.99940000     -31.49950000     -75.09210000
S      -42.23820000     -33.70950000     -73.04550000
S      -46.58370000     -30.69600000     -73.19880000
C      -42.93750000     -34.29730000     -71.37410000
H      -43.85190000     -34.92950000     -71.56840000
H      -42.29010000     -34.94770000     -70.82320000
C      -46.73530000     -32.11860000     -71.91710000
H      -45.98040000     -32.87200000     -72.22330000
H      -47.68770000     -32.48560000     -72.07110000
C      -46.52550000     -31.48520000     -70.54810000
H      -45.60510000     -30.88690000     -70.46370000
H      -47.29740000     -30.76770000     -70.29160000
C      -43.34580000     -33.09610000     -70.52550000
H      -44.11020000     -32.49050000     -71.01140000
H      -42.53440000     -32.40840000     -70.42790000
C      -44.07950000     -33.55890000     -69.25520000
C      -43.35310000     -34.32690000     -68.42080000
C      -45.41960000     -33.28520000     -68.84490000
H      -42.35360000     -34.49870000     -68.44850000
C      -45.68350000     -33.77690000     -67.57930000
C      -46.55030000     -32.52550000     -69.36260000
C      -47.58960000     -32.50030000     -68.47350000
S      -44.30530000     -34.71620000     -66.93550000
S      -47.42750000     -33.61210000     -67.10490000
H      -48.53110000     -31.97090000     -68.64320000
