40
Properties=species:S:1:pos:R:3 #=T CELL(abcABC):=T 1.889726e+02=T 90.00000=T Traj:=T positionsangstrom=T Step:=T 0=T Bead:=T pbc="F F F"
C      -49.20930000     -35.31070000     -70.41990000
C      -47.83320000     -35.36040000     -70.67280000
C      -46.97730000     -34.66850000     -69.76730000
C      -47.45630000     -34.04550000     -68.60910000
C      -48.85990000     -33.89070000     -68.49290000
C      -49.73420000     -34.51910000     -69.39690000
H      -49.86440000     -35.95880000     -71.09870000
H      -45.92240000     -34.89720000     -69.74890000
H      -49.25850000     -33.24490000     -67.72210000
H      -50.84190000     -34.48840000     -69.19120000
C      -46.60380000     -33.60760000     -67.53030000
H      -45.88430000     -34.40360000     -67.28610000
H      -47.11390000     -33.28310000     -66.58750000
C      -47.50590000     -36.07830000     -71.99110000
H      -48.27050000     -36.77070000     -72.50050000
H      -47.36980000     -35.30890000     -72.73030000
S      -45.62220000     -32.23250000     -68.27760000
S      -45.90430000     -37.03270000     -71.92100000
C      -46.45750000     -31.56460000     -69.75920000
H      -47.55130000     -31.61960000     -69.78590000
H      -46.25400000     -30.48740000     -69.76890000
C      -44.59080000     -35.70160000     -72.01010000
H      -43.56780000     -36.09460000     -72.13270000
H      -44.51760000     -35.16360000     -71.02080000
C      -44.95170000     -34.72210000     -73.14920000
H      -45.19240000     -35.34370000     -74.06540000
H      -45.79130000     -34.19580000     -72.81360000
C      -45.91200000     -32.16430000     -71.11540000
H      -46.67880000     -31.96710000     -72.02700000
H      -45.93310000     -33.24740000     -70.94260000
C      -44.54330000     -31.65390000     -71.64800000
C      -43.91220000     -30.48320000     -71.26360000
C      -43.88560000     -32.33120000     -72.70800000
H      -44.31610000     -29.84240000     -70.49330000
C      -42.71520000     -31.57340000     -73.12870000
C      -43.91900000     -33.59760000     -73.39550000
C      -42.92280000     -33.69570000     -74.32300000
S      -42.50630000     -30.09840000     -72.28500000
S      -41.85050000     -32.31630000     -74.47580000
H      -42.76400000     -34.46720000     -75.02970000
