40
Properties=species:S:1:pos:R:3 #=T CELL(abcABC):=T 1.889726e+02=T 90.00000=T Traj:=T positionsangstrom=T Step:=T 0=T Bead:=T pbc="F F F"
C      -46.46980000     -35.14220000     -70.37740000
C      -46.56630000     -34.19190000     -69.31190000
C      -47.33710000     -33.02450000     -69.53700000
C      -47.88680000     -32.77810000     -70.90470000
C      -47.71010000     -33.73930000     -71.87450000
C      -47.02360000     -34.89250000     -71.63270000
H      -45.94620000     -36.07810000     -70.11400000
H      -47.49450000     -32.21570000     -68.77250000
H      -48.04100000     -33.54810000     -72.86090000
H      -46.95970000     -35.62300000     -72.41000000
C      -48.43520000     -31.41000000     -71.13250000
H      -48.77450000     -30.93300000     -70.19980000
H      -49.30350000     -31.48060000     -71.85350000
C      -46.03180000     -34.39940000     -67.95640000
H      -46.45050000     -33.60320000     -67.23490000
H      -46.32670000     -35.31790000     -67.55050000
S      -47.17100000     -30.28640000     -72.00100000
S      -44.13800000     -34.40800000     -67.85910000
C      -45.59020000     -30.83630000     -71.08810000
H      -45.30750000     -30.24730000     -70.21140000
H      -45.63830000     -31.84380000     -70.69560000
C      -43.71500000     -32.83550000     -68.73270000
H      -43.09090000     -32.17670000     -68.04750000
H      -44.70790000     -32.23950000     -68.91770000
C      -42.82890000     -32.93380000     -69.95970000
H      -42.58130000     -31.91940000     -70.30870000
H      -41.83090000     -33.32310000     -69.61510000
C      -44.52070000     -30.90780000     -72.19240000
H      -43.56590000     -30.69290000     -71.79400000
H      -44.74650000     -30.21750000     -72.96610000
C      -44.54420000     -32.22750000     -72.90210000
C      -45.04910000     -32.36110000     -74.16570000
C      -43.97640000     -33.44610000     -72.35560000
H      -45.54820000     -31.64980000     -74.75790000
C      -44.26540000     -34.49810000     -73.22100000
C      -43.35810000     -33.86080000     -71.09630000
C      -43.07010000     -35.18450000     -71.07910000
S      -44.98870000     -34.04570000     -74.74500000
S      -43.76060000     -35.99020000     -72.50090000
H      -42.48620000     -35.69340000     -70.31740000
