40
Properties=species:S:1:pos:R:3 #=T CELL(abcABC):=T 1.889726e+02=T 90.00000=T Traj:=T positionsangstrom=T Step:=T 0=T Bead:=T pbc="F F F"
C      -46.89100000     -35.24140000     -70.34820000
C      -46.56910000     -34.32840000     -69.31100000
C      -46.99240000     -32.98240000     -69.36720000
C      -47.68390000     -32.48580000     -70.43770000
C      -48.01800000     -33.38450000     -71.46250000
C      -47.53480000     -34.71790000     -71.45350000
H      -46.50830000     -36.23820000     -70.44290000
H      -46.73790000     -32.33040000     -68.52470000
H      -48.72230000     -33.12410000     -72.27980000
H      -47.67820000     -35.41350000     -72.30700000
C      -48.02620000     -30.99820000     -70.66080000
H      -47.79880000     -30.31590000     -69.79120000
H      -49.07930000     -30.91350000     -70.91650000
C      -45.77270000     -34.77820000     -68.05970000
H      -46.20040000     -34.36480000     -67.14960000
H      -45.76430000     -35.94740000     -67.99480000
S      -47.17580000     -30.21240000     -72.14250000
S      -44.01610000     -34.28610000     -68.12930000
C      -45.45160000     -30.27330000     -71.49850000
H      -45.09970000     -29.30010000     -71.26960000
H      -45.49060000     -30.84630000     -70.59090000
C      -43.82830000     -32.86520000     -69.17400000
H      -43.69970000     -31.87720000     -68.50160000
H      -44.72670000     -32.62760000     -69.72690000
C      -42.69070000     -33.00020000     -70.14220000
H      -42.51770000     -31.99440000     -70.54980000
H      -41.81010000     -33.31220000     -69.73150000
C      -44.32650000     -30.85850000     -72.44710000
H      -43.33570000     -30.84560000     -71.94910000
H      -44.25610000     -30.25690000     -73.33880000
C      -44.52710000     -32.33070000     -72.90350000
C      -45.41060000     -32.63840000     -73.90340000
C      -43.95500000     -33.53160000     -72.31770000
H      -45.99220000     -31.89830000     -74.46980000
C      -44.35160000     -34.64340000     -73.07470000
C      -43.06790000     -33.92200000     -71.27370000
C      -42.80680000     -35.27760000     -71.25750000
S      -45.34290000     -34.29040000     -74.46410000
S      -43.73230000     -36.14090000     -72.48920000
H      -42.39600000     -35.75570000     -70.39100000
