40
Properties=species:S:1:pos:R:3 #=T CELL(abcABC):=T 1.889726e+02=T 90.00000=T Traj:=T positionsangstrom=T Step:=T 0=T Bead:=T pbc="F F F"
C      -46.93280000     -35.05180000     -70.26910000
C      -46.54560000     -34.09740000     -69.36270000
C      -46.92530000     -32.75770000     -69.45410000
C      -47.63400000     -32.35410000     -70.59400000
C      -48.16410000     -33.35940000     -71.49530000
C      -47.86070000     -34.67320000     -71.27280000
H      -46.48930000     -36.10080000     -70.24700000
H      -46.60080000     -32.07180000     -68.73400000
H      -48.75940000     -32.97290000     -72.32700000
H      -48.34220000     -35.43100000     -71.92380000
C      -47.89030000     -30.86350000     -70.75630000
H      -47.76700000     -30.35180000     -69.74080000
H      -48.91850000     -30.59170000     -70.95730000
C      -45.75290000     -34.47380000     -68.09610000
H      -46.08620000     -33.81700000     -67.25380000
H      -46.10250000     -35.43820000     -67.79810000
S      -46.89690000     -30.08100000     -72.06440000
S      -43.91360000     -34.56990000     -68.36510000
C      -45.19550000     -30.33000000     -71.53740000
H      -44.74470000     -29.38280000     -71.33150000
H      -45.09280000     -30.91980000     -70.68220000
C      -43.46240000     -32.80830000     -68.92270000
H      -42.79520000     -32.36660000     -68.09910000
H      -44.37780000     -32.12110000     -68.97160000
C      -42.65060000     -32.81690000     -70.26490000
H      -42.74410000     -31.82410000     -70.64530000
H      -41.59860000     -32.92480000     -70.08120000
C      -44.46050000     -30.95890000     -72.77720000
H      -43.36350000     -30.90180000     -72.84060000
H      -44.70350000     -30.46940000     -73.69770000
C      -44.76580000     -32.44720000     -72.98070000
C      -45.58460000     -32.85580000     -73.96540000
C      -44.20040000     -33.61610000     -72.26640000
H      -46.11760000     -32.14900000     -74.57920000
C      -44.59810000     -34.80610000     -72.87500000
C      -43.16730000     -33.82480000     -71.29540000
C      -42.66830000     -35.14760000     -71.31510000
S      -45.79050000     -34.58590000     -74.16530000
S      -43.50320000     -36.13670000     -72.45220000
H      -41.77750000     -35.50620000     -70.82710000
