40
Properties=species:S:1:pos:R:3 #=T CELL(abcABC):=T 1.889726e+02=T 90.00000=T Traj:=T positionsangstrom=T Step:=T 0=T Bead:=T pbc="F F F"
C      -46.83530000     -34.90350000     -70.14210000
C      -46.48290000     -33.90380000     -69.20460000
C      -46.84600000     -32.55320000     -69.42900000
C      -47.65130000     -32.26870000     -70.57640000
C      -47.89530000     -33.27860000     -71.53960000
C      -47.58050000     -34.60360000     -71.27250000
H      -46.56870000     -35.94370000     -69.85980000
H      -46.66510000     -31.72050000     -68.74710000
H      -48.43630000     -33.02050000     -72.44160000
H      -47.85280000     -35.32310000     -72.09210000
C      -48.18630000     -30.91460000     -70.89910000
H      -48.28960000     -30.32510000     -70.00810000
H      -49.06980000     -31.00300000     -71.46140000
C      -45.70520000     -34.19800000     -67.97280000
H      -45.74360000     -33.40930000     -67.25770000
H      -46.00950000     -35.20320000     -67.44060000
S      -47.07350000     -29.90150000     -72.03660000
S      -43.87180000     -34.57680000     -68.50700000
C      -45.37850000     -30.43710000     -71.49360000
H      -44.97590000     -29.45870000     -71.11380000
H      -45.45320000     -31.23420000     -70.67420000
C      -43.44870000     -32.89800000     -69.19790000
H      -43.02240000     -32.36060000     -68.32180000
H      -44.33530000     -32.38870000     -69.35240000
C      -42.57480000     -32.83340000     -70.39160000
H      -42.70230000     -31.82500000     -70.86780000
H      -41.53420000     -32.98250000     -70.06570000
C      -44.54440000     -31.08860000     -72.65200000
H      -43.51660000     -31.06370000     -72.33690000
H      -44.71530000     -30.48830000     -73.54080000
C      -44.84480000     -32.54040000     -72.92090000
C      -45.76330000     -32.96940000     -73.79660000
C      -44.05120000     -33.68290000     -72.42720000
H      -46.51250000     -32.32970000     -74.29420000
C      -44.40590000     -34.85350000     -73.01620000
C      -43.01690000     -33.83980000     -71.44650000
C      -42.63450000     -35.19110000     -71.28270000
S      -45.68330000     -34.75420000     -74.18520000
S      -43.67580000     -36.23990000     -72.26820000
H      -41.91860000     -35.50360000     -70.53490000
