40
Properties=species:S:1:pos:R:3 #=T CELL(abcABC):=T 1.889726e+02=T 90.00000=T Traj:=T positionsangstrom=T Step:=T 0=T Bead:=T pbc="F F F"
C      -48.39380000     -35.62050000     -71.28710000
C      -47.29620000     -35.94010000     -70.51320000
C      -47.04520000     -35.07000000     -69.42490000
C      -47.75750000     -33.93390000     -69.11080000
C      -48.95860000     -33.71100000     -69.88550000
C      -49.23690000     -34.54360000     -70.97310000
H      -48.58730000     -36.18670000     -72.19310000
H      -46.11410000     -35.34680000     -68.82290000
H      -49.66390000     -32.92470000     -69.55240000
H      -50.18450000     -34.50790000     -71.52520000
C      -47.34100000     -33.07090000     -68.02660000
H      -46.90030000     -33.57500000     -67.14710000
H      -48.21860000     -32.54160000     -67.70180000
C      -46.66090000     -37.28550000     -70.66860000
H      -46.74600000     -37.84090000     -69.70310000
H      -47.16110000     -37.83520000     -71.54280000
S      -45.92590000     -31.93710000     -68.53090000
S      -44.88580000     -37.18580000     -70.99910000
C      -46.72470000     -31.24070000     -70.02320000
H      -47.84560000     -31.29450000     -69.89480000
H      -46.63040000     -30.14070000     -70.02530000
C      -44.42110000     -35.44590000     -71.19150000
H      -43.31620000     -35.50170000     -71.32140000
H      -44.74080000     -34.86360000     -70.42760000
C      -44.84350000     -34.77140000     -72.54350000
H      -44.87830000     -35.57110000     -73.31690000
H      -45.78530000     -34.35040000     -72.48050000
C      -46.33050000     -31.99540000     -71.38960000
H      -47.13530000     -31.77040000     -72.10370000
H      -46.32760000     -33.06270000     -71.07920000
C      -45.07880000     -31.45640000     -72.05230000
C      -44.68990000     -30.11170000     -71.92030000
C      -44.04850000     -32.27460000     -72.74310000
H      -45.29520000     -29.35980000     -71.46130000
C      -43.00130000     -31.47310000     -73.16760000
C      -43.87640000     -33.71660000     -72.99850000
C      -42.66560000     -33.94310000     -73.58010000
S      -43.15790000     -29.79060000     -72.71680000
S      -41.74410000     -32.50180000     -73.93950000
H      -42.42740000     -34.95370000     -74.00010000
