40
Properties=species:S:1:pos:R:3 #=T CELL(abcABC):=T 1.889726e+02=T 90.00000=T Traj:=T positionsangstrom=T Step:=T 0=T Bead:=T pbc="F F F"
C      -43.07930000     -35.30480000     -74.00610000
C      -43.74080000     -35.12550000     -72.82840000
C      -43.84800000     -33.79870000     -72.29790000
C      -43.24300000     -32.71510000     -72.99020000
C      -42.62260000     -32.99580000     -74.19860000
C      -42.46680000     -34.28980000     -74.68500000
H      -42.93050000     -36.31620000     -74.40440000
H      -44.36800000     -33.64930000     -71.36450000
H      -42.18300000     -32.16810000     -74.78930000
H      -41.92830000     -34.54950000     -75.54240000
C      -43.35670000     -31.28890000     -72.41760000
H      -42.48270000     -30.61220000     -72.55450000
H      -43.34630000     -31.35120000     -71.26920000
C      -44.50190000     -36.22900000     -72.09750000
H      -43.91850000     -37.18070000     -72.37300000
H      -44.47910000     -35.99280000     -71.02370000
S      -44.70190000     -30.22170000     -73.01130000
S      -46.22980000     -36.52470000     -72.64740000
C      -46.33370000     -31.18810000     -72.88710000
H      -47.00110000     -30.81060000     -73.61540000
H      -46.11660000     -32.20010000     -73.11080000
C      -47.06920000     -34.89170000     -72.74430000
H      -47.69010000     -34.98020000     -73.63850000
H      -46.34690000     -34.20350000     -73.01660000
C      -47.91780000     -34.56290000     -71.48810000
H      -48.75580000     -33.84600000     -71.56380000
H      -48.51750000     -35.48460000     -71.23400000
C      -46.99110000     -31.05190000     -71.47900000
H      -47.94890000     -31.45790000     -71.54310000
H      -47.02140000     -29.98450000     -71.26160000
C      -46.33130000     -31.68250000     -70.27590000
C      -45.69150000     -30.85540000     -69.37030000
C      -46.37900000     -33.04740000     -69.84730000
H      -45.41040000     -29.84860000     -69.44680000
C      -45.71190000     -33.18430000     -68.65550000
C      -47.03250000     -34.29610000     -70.28230000
C      -46.93400000     -35.22840000     -69.27910000
S      -45.07720000     -31.73810000     -67.93580000
S      -46.00630000     -34.71520000     -67.87900000
H      -47.19990000     -36.31390000     -69.37430000
