40
Properties=species:S:1:pos:R:3 #=T CELL(abcABC):=T 1.889726e+02=T 90.00000=T Traj:=T positionsangstrom=T Step:=T 0=T Bead:=T pbc="F F F"
C      -43.72270000     -35.01740000     -74.03830000
C      -43.92220000     -34.77280000     -72.68110000
C      -43.72540000     -33.50120000     -72.18540000
C      -43.38230000     -32.45530000     -73.04100000
C      -43.17880000     -32.69420000     -74.42010000
C      -43.38360000     -33.98170000     -74.93860000
H      -44.03610000     -35.99930000     -74.33830000
H      -43.91520000     -33.37900000     -71.18360000
H      -42.95020000     -31.87220000     -75.06820000
H      -43.36370000     -34.14940000     -75.95300000
C      -43.24580000     -31.10670000     -72.30520000
H      -42.34140000     -30.60850000     -72.60400000
H      -43.19050000     -31.35140000     -71.24890000
C      -44.54820000     -35.78490000     -71.75860000
H      -43.75320000     -36.58680000     -71.63660000
H      -44.75630000     -35.37800000     -70.75970000
S      -44.71980000     -29.99140000     -72.51870000
S      -46.01470000     -36.58550000     -72.57350000
C      -46.23720000     -31.04530000     -72.72580000
H      -46.83040000     -30.72630000     -73.55050000
H      -45.95530000     -31.97200000     -73.14230000
C      -47.12340000     -35.12480000     -72.75660000
H      -47.73290000     -35.36870000     -73.64730000
H      -46.48340000     -34.32940000     -73.12780000
C      -47.91150000     -34.70240000     -71.53340000
H      -48.37960000     -33.79130000     -71.84350000
H      -48.71010000     -35.43210000     -71.28860000
C      -47.13460000     -31.17190000     -71.50730000
H      -48.04680000     -31.75710000     -71.66680000
H      -47.56970000     -30.21520000     -71.29930000
C      -46.35850000     -31.78310000     -70.28160000
C      -45.52730000     -31.00680000     -69.46060000
C      -46.42460000     -33.22500000     -69.86780000
H      -45.09670000     -30.01350000     -69.48530000
C      -45.67670000     -33.39800000     -68.74210000
C      -47.09330000     -34.44030000     -70.27560000
C      -46.68480000     -35.50480000     -69.48480000
S      -44.77690000     -31.99820000     -68.23900000
S      -45.66260000     -35.05260000     -68.07300000
H      -47.11090000     -36.55670000     -69.41910000
