40
Properties=species:S:1:pos:R:3 #=T CELL(abcABC):=T 1.889726e+02=T 90.00000=T Traj:=T positionsangstrom=T Step:=T 0=T Bead:=T pbc="F F F"
C      -44.66550000     -36.71370000     -73.56590000
C      -45.91600000     -36.14050000     -73.27030000
C      -46.46620000     -36.16760000     -72.01990000
C      -45.76810000     -36.79490000     -70.97610000
C      -44.49590000     -37.30710000     -71.22700000
C      -43.96060000     -37.26300000     -72.54110000
H      -44.19320000     -36.66890000     -74.58150000
H      -47.39650000     -35.68000000     -71.90150000
H      -43.78660000     -37.60080000     -70.42040000
H      -43.02740000     -37.66630000     -72.69550000
C      -46.29910000     -37.00670000     -69.58800000
H      -45.83430000     -37.88250000     -69.06150000
H      -47.40260000     -37.10520000     -69.49380000
C      -46.64920000     -35.26400000     -74.29450000
H      -47.02500000     -35.87730000     -75.11730000
H      -47.61970000     -34.97960000     -73.87840000
S      -45.93990000     -35.51440000     -68.42000000
S      -45.62460000     -33.91410000     -75.04380000
C      -47.05310000     -34.25680000     -69.02560000
H      -47.91450000     -34.80770000     -69.44680000
H      -47.48160000     -33.68030000     -68.18280000
C      -45.13050000     -32.77980000     -73.73810000
H      -44.14360000     -32.36830000     -73.94480000
H      -45.02580000     -33.37190000     -72.85850000
C      -46.11120000     -31.68820000     -73.27700000
H      -46.26790000     -31.00520000     -74.08930000
H      -47.05750000     -32.04070000     -72.97540000
C      -46.51720000     -33.30400000     -70.15650000
H      -47.45310000     -32.76960000     -70.52240000
H      -46.18740000     -33.87920000     -70.97980000
C      -45.53660000     -32.26980000     -69.88150000
C      -45.04770000     -32.02950000     -68.58210000
C      -45.11880000     -31.28800000     -70.83440000
H      -45.20960000     -32.59080000     -67.67320000
C      -44.40320000     -30.29770000     -70.21290000
C      -45.32990000     -30.96640000     -72.26220000
C      -44.72720000     -29.77530000     -72.55990000
S      -44.14260000     -30.56620000     -68.51840000
S      -43.76010000     -29.04610000     -71.23050000
H      -44.84150000     -29.16400000     -73.45810000
