40
Properties=species:S:1:pos:R:3 #=T CELL(abcABC):=T 1.889726e+02=T 90.00000=T Traj:=T positionsangstrom=T Step:=T 0=T Bead:=T pbc="F F F"
C      -43.68960000     -34.77860000     -74.38170000
C      -43.85950000     -34.77150000     -72.96800000
C      -43.57640000     -33.61720000     -72.25720000
C      -43.30240000     -32.44230000     -72.89260000
C      -43.06780000     -32.42680000     -74.27300000
C      -43.17550000     -33.60880000     -75.00850000
H      -44.13880000     -35.59750000     -74.98410000
H      -43.75460000     -33.61410000     -71.11690000
H      -42.55360000     -31.53080000     -74.65910000
H      -43.07920000     -33.78490000     -76.13030000
C      -43.43000000     -31.18360000     -71.99430000
H      -42.48070000     -30.57690000     -72.03890000
H      -43.56620000     -31.57340000     -70.96720000
C      -44.23370000     -35.99230000     -72.18610000
H      -43.70740000     -36.91020000     -72.44160000
H      -44.02910000     -35.97190000     -71.13880000
S      -44.75270000     -30.07470000     -72.64790000
S      -46.02300000     -36.51110000     -72.36680000
C      -46.21130000     -31.12780000     -72.82730000
H      -46.80510000     -30.58090000     -73.54650000
H      -46.02590000     -32.12800000     -73.24040000
C      -46.98600000     -34.91170000     -72.66710000
H      -47.45000000     -34.89290000     -73.64400000
H      -46.21630000     -34.11720000     -72.67040000
C      -47.96630000     -34.74720000     -71.46340000
H      -48.57040000     -33.81270000     -71.57560000
H      -48.71400000     -35.51880000     -71.45650000
C      -47.10320000     -31.24110000     -71.56200000
H      -47.91660000     -31.87820000     -71.78380000
H      -47.51350000     -30.28470000     -71.30410000
C      -46.40630000     -31.96070000     -70.32700000
C      -45.65310000     -31.11510000     -69.58390000
C      -46.45190000     -33.31500000     -69.88200000
H      -45.58770000     -30.07670000     -69.63810000
C      -45.70630000     -33.46170000     -68.68560000
C      -47.06780000     -34.57600000     -70.23170000
C      -46.79610000     -35.57700000     -69.29400000
S      -44.97930000     -31.91810000     -68.17620000
S      -45.67040000     -35.07490000     -68.01630000
H      -47.23340000     -36.54860000     -69.46080000
