40
Properties=species:S:1:pos:R:3 #=T CELL(abcABC):=T 1.889726e+02=T 90.00000=T Traj:=T positionsangstrom=T Step:=T 0=T Bead:=T pbc="F F F"
C      -43.12460000     -35.05710000     -74.27230000
C      -43.56820000     -34.92230000     -72.92040000
C      -43.69250000     -33.66340000     -72.28220000
C      -43.42940000     -32.47980000     -72.96540000
C      -43.01860000     -32.60580000     -74.32970000
C      -42.87310000     -33.79590000     -74.92710000
H      -43.15480000     -36.02630000     -74.78990000
H      -43.94910000     -33.75740000     -71.22630000
H      -42.66930000     -31.69190000     -74.87480000
H      -42.61890000     -33.80260000     -75.99010000
C      -43.52330000     -31.16570000     -72.23900000
H      -42.69750000     -30.50100000     -72.49790000
H      -43.44030000     -31.31430000     -71.08620000
C      -43.93670000     -36.14500000     -72.21630000
H      -43.38780000     -37.04710000     -72.40840000
H      -43.87750000     -35.98050000     -71.06770000
S      -44.96590000     -30.11390000     -72.68980000
S      -45.68110000     -36.65990000     -72.75350000
C      -46.37100000     -31.28400000     -72.82560000
H      -46.97110000     -31.06970000     -73.70350000
H      -45.93420000     -32.28030000     -73.10780000
C      -46.70700000     -35.10180000     -72.74740000
H      -47.28720000     -35.12930000     -73.66000000
H      -45.96900000     -34.28660000     -72.99390000
C      -47.58150000     -34.79850000     -71.50130000
H      -48.22350000     -33.94840000     -71.85370000
H      -48.28550000     -35.53080000     -71.33180000
C      -47.30670000     -31.44560000     -71.56780000
H      -48.07020000     -32.15390000     -71.96130000
H      -47.73680000     -30.49380000     -71.30800000
C      -46.49780000     -31.84990000     -70.35640000
C      -45.94120000     -30.95950000     -69.45880000
C      -46.49210000     -33.18540000     -69.79230000
H      -46.09610000     -29.88660000     -69.57810000
C      -45.93720000     -33.18330000     -68.48120000
C      -46.92860000     -34.50080000     -70.22430000
C      -46.72170000     -35.46430000     -69.24990000
S      -45.37650000     -31.63400000     -67.95170000
S      -45.85760000     -34.82420000     -67.82720000
H      -46.77520000     -36.54650000     -69.40060000
