40
Properties=species:S:1:pos:R:3 #=T CELL(abcABC):=T 1.889726e+02=T 90.00000=T Traj:=T positionsangstrom=T Step:=T 0=T Bead:=T pbc="F F F"
C      -46.81170000     -34.63600000     -69.83520000
C      -46.58790000     -33.45110000     -69.13230000
C      -47.00800000     -32.18770000     -69.63760000
C      -47.74620000     -32.09570000     -70.80330000
C      -48.05280000     -33.27660000     -71.43400000
C      -47.57770000     -34.54980000     -71.01200000
H      -46.39530000     -35.57450000     -69.53380000
H      -46.83710000     -31.30000000     -68.94060000
H      -48.71300000     -33.22350000     -72.32580000
H      -47.82990000     -35.47290000     -71.52090000
C      -48.15890000     -30.70650000     -71.30290000
H      -48.23080000     -29.99680000     -70.39600000
H      -49.08140000     -30.88280000     -71.80100000
C      -45.80530000     -33.62770000     -67.80800000
H      -45.80580000     -32.73360000     -67.16710000
H      -46.20540000     -34.42980000     -67.25910000
S      -46.94640000     -30.12560000     -72.71070000
S      -44.07780000     -34.10500000     -68.27500000
C      -45.21690000     -30.43930000     -72.01130000
H      -44.66450000     -29.43650000     -71.94570000
H      -45.33180000     -30.72840000     -70.96010000
C      -43.41110000     -32.54840000     -69.15640000
H      -42.91410000     -31.85300000     -68.44270000
H      -44.29280000     -31.97240000     -69.55100000
C      -42.47280000     -32.91660000     -70.33650000
H      -42.23220000     -32.04570000     -70.92570000
H      -41.47820000     -33.32200000     -69.93970000
C      -44.28080000     -31.31340000     -72.81040000
H      -43.23720000     -31.38610000     -72.46260000
H      -44.22510000     -30.81500000     -73.76040000
C      -44.76220000     -32.81020000     -72.95550000
C      -45.62640000     -33.29320000     -73.95430000
C      -44.06260000     -33.89710000     -72.31810000
H      -46.19520000     -32.70910000     -74.73210000
C      -44.40330000     -35.14090000     -72.79060000
C      -43.15320000     -34.06480000     -71.17520000
C      -42.87070000     -35.38300000     -70.82340000
S      -45.58070000     -34.99740000     -74.17430000
S      -43.68750000     -36.53990000     -71.93070000
H      -42.09980000     -35.69190000     -70.11390000
