40
Properties=species:S:1:pos:R:3 #=T CELL(abcABC):=T 1.889726e+02=T 90.00000=T Traj:=T positionsangstrom=T Step:=T 0=T Bead:=T pbc="F F F"
C      -42.50710000     -34.94210000     -73.53960000
C      -43.40500000     -35.02460000     -72.47380000
C      -43.90800000     -33.77010000     -72.02100000
C      -43.52740000     -32.57880000     -72.60500000
C      -42.80980000     -32.57610000     -73.81550000
C      -42.27200000     -33.78030000     -74.25650000
H      -42.03650000     -35.85980000     -73.98260000
H      -44.40690000     -33.81740000     -71.06620000
H      -42.53030000     -31.60250000     -74.27980000
H      -41.72470000     -33.76040000     -75.17950000
C      -43.97680000     -31.25550000     -72.00220000
H      -43.11110000     -30.59700000     -71.86460000
H      -44.40150000     -31.50090000     -70.91770000
C      -43.87760000     -36.28990000     -71.83260000
H      -43.12100000     -37.06580000     -71.88920000
H      -44.08670000     -36.13000000     -70.72210000
S      -45.34430000     -30.40710000     -72.93980000
S      -45.45750000     -36.87710000     -72.60680000
C      -46.74350000     -31.56000000     -72.95270000
H      -47.32800000     -31.68440000     -73.82010000
H      -46.28710000     -32.61550000     -72.99550000
C      -46.49450000     -35.34090000     -72.79810000
H      -47.10440000     -35.38600000     -73.68240000
H      -45.90730000     -34.41040000     -73.06620000
C      -47.44860000     -34.84970000     -71.56880000
H      -47.95210000     -33.93300000     -71.92030000
H      -48.13880000     -35.63190000     -71.32540000
C      -47.82050000     -31.49510000     -71.74330000
H      -48.58660000     -32.25910000     -71.76910000
H      -48.21910000     -30.53730000     -71.62970000
C      -46.95540000     -31.74570000     -70.47470000
C      -46.39530000     -30.72060000     -69.74410000
C      -46.48930000     -33.01300000     -70.02630000
H      -46.43010000     -29.65850000     -70.01400000
C      -45.86550000     -32.97970000     -68.80160000
C      -46.73790000     -34.40680000     -70.38000000
C      -46.31010000     -35.33290000     -69.47640000
S      -45.43590000     -31.35550000     -68.41380000
S      -45.66290000     -34.52900000     -68.05460000
H      -46.42350000     -36.37040000     -69.48200000
