40
Properties=species:S:1:pos:R:3 #=T CELL(abcABC):=T 1.889726e+02=T 90.00000=T Traj:=T positionsangstrom=T Step:=T 0=T Bead:=T pbc="F F F"
C      -44.84720000     -36.78280000     -73.61010000
C      -45.93210000     -36.00480000     -73.26220000
C      -46.47580000     -35.99430000     -71.91780000
C      -45.81330000     -36.70120000     -70.92270000
C      -44.68150000     -37.48450000     -71.28010000
C      -44.22690000     -37.56270000     -72.62800000
H      -44.55220000     -36.80610000     -74.66960000
H      -47.40990000     -35.42380000     -71.68180000
H      -44.22250000     -38.17800000     -70.56200000
H      -43.43910000     -38.28710000     -72.94470000
C      -46.37570000     -36.87320000     -69.53900000
H      -45.91650000     -37.69220000     -69.04750000
H      -47.45410000     -37.00230000     -69.59940000
C      -46.61140000     -35.14610000     -74.30790000
H      -46.92370000     -35.74250000     -75.15650000
H      -47.37260000     -34.59540000     -73.77660000
S      -45.92780000     -35.43180000     -68.38680000
S      -45.39550000     -33.94610000     -75.03240000
C      -47.13450000     -34.04670000     -69.14820000
H      -48.03480000     -34.53570000     -69.47840000
H      -47.34640000     -33.47280000     -68.26470000
C      -44.91600000     -32.90530000     -73.54050000
H      -44.03120000     -32.42930000     -73.90320000
H      -44.55600000     -33.65620000     -72.75600000
C      -46.00110000     -31.97880000     -73.11090000
H      -46.37480000     -31.42570000     -74.02010000
H      -46.89590000     -32.57500000     -72.78510000
C      -46.48020000     -33.33790000     -70.32130000
H      -47.18010000     -32.91860000     -71.04420000
H      -45.84740000     -33.97610000     -70.94930000
C      -45.70550000     -32.11590000     -69.84870000
C      -45.02240000     -32.09340000     -68.62050000
C      -45.20900000     -31.15200000     -70.75920000
H      -45.15560000     -32.82750000     -67.80620000
C      -44.42030000     -30.19250000     -70.16460000
C      -45.44530000     -30.89350000     -72.19030000
C      -44.69480000     -29.80530000     -72.61100000
S      -44.00420000     -30.72960000     -68.56840000
S      -43.85660000     -28.97090000     -71.28780000
H      -44.66500000     -29.28080000     -73.58180000
