40
Properties=species:S:1:pos:R:3 #=T CELL(abcABC):=T 1.889726e+02=T 90.00000=T Traj:=T positionsangstrom=T Step:=T 0=T Bead:=T pbc="F F F"
C      -42.85540000     -34.84990000     -73.76690000
C      -43.56210000     -34.60410000     -72.53670000
C      -43.74340000     -33.31660000     -72.05960000
C      -43.30130000     -32.18440000     -72.79670000
C      -42.68240000     -32.42460000     -74.03090000
C      -42.48960000     -33.73350000     -74.50360000
H      -42.58830000     -35.77490000     -74.16890000
H      -44.28240000     -33.13080000     -71.14470000
H      -42.54700000     -31.61000000     -74.69860000
H      -41.91880000     -33.85970000     -75.43790000
C      -43.66200000     -30.88200000     -72.23740000
H      -42.96400000     -30.06290000     -72.46640000
H      -43.79500000     -30.95790000     -71.19750000
C      -44.02960000     -35.79690000     -71.73360000
H      -43.25740000     -36.57830000     -71.67320000
H      -44.02710000     -35.50670000     -70.68170000
S      -45.19540000     -30.29570000     -73.19440000
S      -45.46800000     -36.68720000     -72.31310000
C      -46.29200000     -31.80380000     -73.15920000
H      -46.84930000     -31.80550000     -74.12440000
H      -45.78630000     -32.73600000     -73.12340000
C      -46.67380000     -35.44690000     -72.73700000
H      -47.39980000     -35.76750000     -73.56720000
H      -46.27240000     -34.49690000     -73.12440000
C      -47.49500000     -35.17020000     -71.52880000
H      -48.31240000     -34.50150000     -71.81250000
H      -47.96510000     -36.16530000     -71.23000000
C      -47.31010000     -31.67100000     -71.99970000
H      -48.18760000     -32.28310000     -72.16920000
H      -47.82370000     -30.70990000     -71.98970000
C      -46.83610000     -32.00220000     -70.53180000
C      -46.69870000     -30.99060000     -69.59960000
C      -46.60950000     -33.30860000     -69.87990000
H      -46.93330000     -29.92320000     -69.74090000
C      -45.91550000     -33.18480000     -68.65980000
C      -46.71120000     -34.68470000     -70.32260000
C      -46.20900000     -35.55030000     -69.36500000
S      -45.94960000     -31.47740000     -68.04870000
S      -45.48990000     -34.73900000     -68.04360000
H      -46.02470000     -36.65240000     -69.30470000
