40
Properties=species:S:1:pos:R:3 #=T CELL(abcABC):=T 1.889726e+02=T 90.00000=T Traj:=T positionsangstrom=T Step:=T 0=T Bead:=T pbc="F F F"
C      -42.77430000     -34.78240000     -73.97020000
C      -43.31660000     -34.62630000     -72.70880000
C      -43.61880000     -33.38130000     -72.15410000
C      -43.47600000     -32.22610000     -72.94860000
C      -43.02700000     -32.40310000     -74.26940000
C      -42.63260000     -33.67290000     -74.76060000
H      -42.40760000     -35.79180000     -74.35260000
H      -44.06890000     -33.33940000     -71.15300000
H      -42.93440000     -31.67080000     -75.07270000
H      -42.29720000     -33.73140000     -75.80270000
C      -43.76570000     -30.87530000     -72.30470000
H      -43.01480000     -30.15230000     -72.60520000
H      -43.83520000     -30.91990000     -71.22580000
C      -43.56360000     -35.83750000     -71.82030000
H      -42.70910000     -36.48660000     -71.83460000
H      -43.78730000     -35.57180000     -70.79590000
S      -45.38260000     -30.22580000     -72.92560000
S      -44.95090000     -36.76040000     -72.54560000
C      -46.52820000     -31.65260000     -72.96810000
H      -47.12670000     -31.50550000     -73.85280000
H      -45.90780000     -32.57910000     -73.13560000
C      -46.31190000     -35.51040000     -72.69120000
H      -46.82840000     -35.73230000     -73.62710000
H      -45.66830000     -34.56740000     -72.82360000
C      -47.27260000     -35.41120000     -71.49160000
H      -48.25140000     -34.88820000     -71.78040000
H      -47.67650000     -36.40940000     -71.35310000
C      -47.60820000     -31.75740000     -71.79030000
H      -48.38350000     -32.54910000     -72.02930000
H      -48.17990000     -30.83030000     -71.72890000
C      -46.98120000     -32.02310000     -70.46310000
C      -46.38870000     -30.99220000     -69.75390000
C      -46.83660000     -33.33480000     -69.84390000
H      -46.30390000     -30.00050000     -70.10760000
C      -46.18360000     -33.12670000     -68.63730000
C      -46.81740000     -34.75320000     -70.18100000
C      -46.31450000     -35.51920000     -69.16760000
S      -45.74670000     -31.49200000     -68.15890000
S      -45.93260000     -34.59140000     -67.76590000
H      -46.36110000     -36.57950000     -69.18450000
