40
Properties=species:S:1:pos:R:3 #=T CELL(abcABC):=T 1.889726e+02=T 90.00000=T Traj:=T positionsangstrom=T Step:=T 0=T Bead:=T pbc="F F F"
C      -42.69790000     -34.69530000     -74.01080000
C      -43.11590000     -34.51270000     -72.69150000
C      -43.44500000     -33.27750000     -72.12570000
C      -43.46990000     -32.13050000     -72.94520000
C      -43.11910000     -32.32180000     -74.31170000
C      -42.59770000     -33.55150000     -74.78680000
H      -42.24540000     -35.62380000     -74.40880000
H      -43.60460000     -33.25040000     -70.99510000
H      -43.16450000     -31.52130000     -75.06550000
H      -42.29650000     -33.62130000     -75.85620000
C      -43.92940000     -30.86690000     -72.31850000
H      -43.12940000     -30.21990000     -72.48260000
H      -44.03150000     -30.90920000     -71.18430000
C      -43.31680000     -35.84590000     -71.89770000
H      -42.44110000     -36.53370000     -72.19090000
H      -43.10150000     -35.75450000     -70.82390000
S      -45.60370000     -30.20360000     -72.84570000
S      -44.87890000     -36.77580000     -72.41960000
C      -46.60650000     -31.68540000     -73.12070000
H      -47.19910000     -31.41940000     -74.05080000
H      -46.00080000     -32.52570000     -73.38550000
C      -46.15950000     -35.36090000     -72.59810000
H      -46.67380000     -35.50780000     -73.55280000
H      -45.65950000     -34.43080000     -72.75230000
C      -47.24200000     -35.33210000     -71.56730000
H      -48.09850000     -34.75010000     -71.96820000
H      -47.57350000     -36.37870000     -71.55330000
C      -47.49400000     -31.99040000     -71.89840000
H      -48.09070000     -32.86590000     -72.11870000
H      -48.23790000     -31.20470000     -71.88870000
C      -46.85890000     -32.13390000     -70.51650000
C      -46.50620000     -31.04410000     -69.75350000
C      -46.61310000     -33.41010000     -69.86310000
H      -46.64790000     -30.01170000     -69.99100000
C      -46.07750000     -33.18160000     -68.57970000
C      -46.79000000     -34.84460000     -70.21990000
C      -46.64690000     -35.60410000     -69.10760000
S      -45.79650000     -31.46320000     -68.21920000
S      -46.03290000     -34.66690000     -67.73610000
H      -46.73540000     -36.65810000     -69.15410000
