40
Properties=species:S:1:pos:R:3 #=T CELL(abcABC):=T 1.889726e+02=T 90.00000=T Traj:=T positionsangstrom=T Step:=T 0=T Bead:=T pbc="F F F"
C      -42.56970000     -34.50570000     -73.91670000
C      -43.24240000     -34.40770000     -72.66200000
C      -43.78720000     -33.17000000     -72.21540000
C      -43.47960000     -31.97420000     -72.90670000
C      -42.88470000     -32.08100000     -74.17600000
C      -42.41790000     -33.30080000     -74.68850000
H      -42.14530000     -35.46590000     -74.32270000
H      -44.27710000     -33.10790000     -71.23630000
H      -42.79510000     -31.20580000     -74.86770000
H      -42.04500000     -33.34140000     -75.71520000
C      -44.07990000     -30.68710000     -72.37620000
H      -43.56600000     -29.70700000     -72.57040000
H      -44.09040000     -30.88400000     -71.28250000
C      -43.30330000     -35.57580000     -71.75190000
H      -42.42500000     -36.26170000     -72.04890000
H      -43.22010000     -35.39310000     -70.62530000
S      -45.77360000     -30.30310000     -73.13630000
S      -44.74930000     -36.72010000     -71.99430000
C      -46.81480000     -31.79140000     -73.13430000
H      -47.33840000     -31.83180000     -74.05490000
H      -46.09330000     -32.63960000     -73.21660000
C      -46.19700000     -35.66250000     -72.60260000
H      -46.66050000     -36.22030000     -73.44790000
H      -45.87990000     -34.71610000     -73.03650000
C      -47.32310000     -35.41140000     -71.51480000
H      -48.09840000     -34.81520000     -72.00310000
H      -47.79760000     -36.36850000     -71.30750000
C      -47.72940000     -31.94090000     -71.88190000
H      -48.57220000     -32.64190000     -71.95460000
H      -48.20250000     -30.97880000     -71.85030000
C      -46.91060000     -32.14190000     -70.60920000
C      -46.56260000     -31.09800000     -69.79110000
C      -46.59200000     -33.41920000     -70.02660000
H      -46.50990000     -29.95920000     -69.93120000
C      -46.04730000     -33.28160000     -68.71820000
C      -46.78120000     -34.86210000     -70.27530000
C      -46.48160000     -35.60600000     -69.16870000
S      -45.84110000     -31.65350000     -68.18580000
S      -45.71430000     -34.78880000     -67.89020000
H      -46.48310000     -36.71580000     -69.16650000
