40
Properties=species:S:1:pos:R:3 #=T CELL(abcABC):=T 1.889726e+02=T 90.00000=T Traj:=T positionsangstrom=T Step:=T 0=T Bead:=T pbc="F F F"
C      -42.39190000     -34.23950000     -73.72660000
C      -43.15350000     -34.35260000     -72.55680000
C      -43.76740000     -33.23480000     -72.00390000
C      -43.68210000     -32.01310000     -72.63610000
C      -43.06630000     -31.92650000     -73.88540000
C      -42.44920000     -33.03160000     -74.44580000
H      -41.91250000     -35.18030000     -74.07280000
H      -44.37740000     -33.37420000     -71.13310000
H      -43.09190000     -30.93990000     -74.32290000
H      -41.91880000     -32.96070000     -75.37880000
C      -44.43710000     -30.86390000     -72.11550000
H      -43.77110000     -29.92850000     -72.07370000
H      -44.77410000     -31.03740000     -71.04860000
C      -43.38230000     -35.71280000     -71.92290000
H      -42.65770000     -36.52440000     -72.13150000
H      -43.42090000     -35.62130000     -70.80940000
S      -45.87080000     -30.50040000     -73.15800000
S      -44.92000000     -36.73550000     -72.52000000
C      -46.82810000     -32.02930000     -72.98410000
H      -47.30730000     -32.18300000     -73.97430000
H      -46.18340000     -32.90750000     -72.75720000
C      -46.21340000     -35.44700000     -72.83490000
H      -46.84610000     -35.77010000     -73.72070000
H      -45.74570000     -34.53050000     -73.15050000
C      -47.23570000     -35.28330000     -71.63000000
H      -48.05470000     -34.62520000     -71.92840000
H      -47.68660000     -36.31460000     -71.48000000
C      -47.86450000     -31.92610000     -71.71690000
H      -48.65630000     -32.62750000     -71.87860000
H      -48.32640000     -30.94730000     -71.71430000
C      -47.14240000     -32.17130000     -70.41600000
C      -46.78910000     -31.10650000     -69.56190000
C      -46.54340000     -33.40800000     -69.87560000
H      -47.01370000     -30.07530000     -69.71660000
C      -45.94080000     -33.27510000     -68.63880000
C      -46.53640000     -34.77200000     -70.36870000
C      -45.93740000     -35.66370000     -69.49330000
S      -45.96520000     -31.58000000     -68.06760000
S      -45.22560000     -34.82210000     -68.11480000
H      -45.66070000     -36.70000000     -69.64750000
