40
Properties=species:S:1:pos:R:3 #=T CELL(abcABC):=T 1.889726e+02=T 90.00000=T Traj:=T positionsangstrom=T Step:=T 0=T Bead:=T pbc="F F F"
C      -42.24100000     -34.10030000     -73.84820000
C      -43.12430000     -34.30240000     -72.76780000
C      -43.85590000     -33.22740000     -72.23810000
C      -43.69480000     -31.98100000     -72.79230000
C      -42.93320000     -31.76840000     -73.90390000
C      -42.14980000     -32.81950000     -74.43960000
H      -41.55600000     -34.86470000     -74.17330000
H      -44.55810000     -33.39350000     -71.37710000
H      -42.95250000     -30.72540000     -74.31550000
H      -41.38870000     -32.65070000     -75.22480000
C      -44.34870000     -30.73900000     -72.01060000
H      -43.66520000     -29.89270000     -72.06560000
H      -44.37230000     -31.10600000     -70.95240000
C      -43.32310000     -35.67270000     -72.21600000
H      -42.37480000     -36.27350000     -72.34780000
H      -43.48500000     -35.64320000     -71.12470000
S      -45.99980000     -30.19370000     -72.72820000
S      -44.74610000     -36.77710000     -72.77610000
C      -47.03200000     -31.76090000     -72.91230000
H      -47.64980000     -31.76370000     -73.85950000
H      -46.29680000     -32.60460000     -73.03890000
C      -46.10380000     -35.51860000     -72.88590000
H      -46.68660000     -35.86790000     -73.74460000
H      -45.68770000     -34.49950000     -72.95840000
C      -47.09590000     -35.52720000     -71.67340000
H      -47.99660000     -34.96550000     -71.97290000
H      -47.43110000     -36.54700000     -71.54810000
C      -47.90470000     -32.02150000     -71.67110000
H      -48.45840000     -32.98450000     -71.92850000
H      -48.64150000     -31.22990000     -71.61270000
C      -47.12480000     -32.32920000     -70.43300000
C      -46.98630000     -31.34460000     -69.49690000
C      -46.52540000     -33.54860000     -69.97920000
H      -47.27500000     -30.22100000     -69.49350000
C      -45.98670000     -33.34950000     -68.70220000
C      -46.49850000     -34.97390000     -70.39880000
C      -45.96250000     -35.73890000     -69.37520000
S      -46.01160000     -31.79580000     -68.06660000
S      -45.43130000     -34.77800000     -67.93860000
H      -45.93100000     -36.81270000     -69.26810000
