40
Properties=species:S:1:pos:R:3 #=T CELL(abcABC):=T 1.889726e+02=T 90.00000=T Traj:=T positionsangstrom=T Step:=T 0=T Bead:=T pbc="F F F"
C      -42.34740000     -34.04670000     -73.84030000
C      -43.22240000     -34.21450000     -72.74050000
C      -43.86410000     -33.08400000     -72.19530000
C      -43.72000000     -31.81690000     -72.72180000
C      -42.90430000     -31.61070000     -73.80300000
C      -42.19640000     -32.75400000     -74.40100000
H      -41.93110000     -34.90180000     -74.35750000
H      -44.44750000     -33.25100000     -71.24350000
H      -42.83190000     -30.64270000     -74.26930000
H      -41.47390000     -32.62770000     -75.18340000
C      -44.39340000     -30.64170000     -72.06190000
H      -43.84660000     -29.68180000     -72.16420000
H      -44.51130000     -30.71730000     -71.01870000
C      -43.27440000     -35.57380000     -72.10040000
H      -42.45160000     -36.05490000     -72.59120000
H      -43.30580000     -35.59040000     -71.02830000
S      -46.12520000     -30.18670000     -72.65530000
S      -44.73590000     -36.51240000     -72.87890000
C      -46.88750000     -31.84110000     -72.92770000
H      -47.46400000     -31.67780000     -73.77110000
H      -46.03640000     -32.47640000     -73.11420000
C      -46.24530000     -35.46160000     -72.87690000
H      -46.72900000     -35.77480000     -73.82100000
H      -46.04250000     -34.44810000     -73.16760000
C      -47.13970000     -35.65180000     -71.61060000
H      -48.14480000     -35.33120000     -71.77870000
H      -47.31100000     -36.75760000     -71.38810000
C      -47.72030000     -32.33620000     -71.75500000
H      -48.35180000     -33.21410000     -71.85920000
H      -48.45920000     -31.57600000     -71.63020000
C      -46.98240000     -32.43280000     -70.46840000
C      -46.89600000     -31.35890000     -69.60870000
C      -46.49990000     -33.65950000     -69.90750000
H      -47.37160000     -30.31650000     -69.73740000
C      -46.05110000     -33.45700000     -68.56620000
C      -46.47690000     -35.07820000     -70.33690000
C      -45.81620000     -35.87210000     -69.43670000
S      -46.12070000     -31.77000000     -68.05170000
S      -45.30180000     -35.01440000     -68.04550000
H      -45.70500000     -36.94870000     -69.59690000
