40
Properties=species:S:1:pos:R:3 #=T CELL(abcABC):=T 1.889726e+02=T 90.00000=T Traj:=T positionsangstrom=T Step:=T 0=T Bead:=T pbc="F F F"
C      -47.42080000     -36.72320000     -71.96160000
C      -46.36840000     -36.85090000     -71.01630000
C      -46.42740000     -36.15300000     -69.80370000
C      -47.43570000     -35.24890000     -69.49990000
C      -48.48160000     -35.15110000     -70.42650000
C      -48.41550000     -35.84630000     -71.67470000
H      -47.45560000     -37.31980000     -72.95180000
H      -45.63130000     -36.22600000     -69.08460000
H      -49.29860000     -34.44900000     -70.18770000
H      -49.22920000     -35.61340000     -72.36250000
C      -47.57160000     -34.47640000     -68.21200000
H      -47.97440000     -35.26060000     -67.46440000
H      -48.27480000     -33.55750000     -68.30340000
C      -45.09420000     -37.65650000     -71.39210000
H      -44.60660000     -38.18570000     -70.56380000
H      -45.24280000     -38.44680000     -72.16560000
S      -45.99350000     -33.68250000     -67.48510000
S      -43.78770000     -36.56120000     -72.16870000
C      -45.50940000     -32.18340000     -68.53890000
H      -46.41630000     -31.50160000     -68.50930000
H      -44.72900000     -31.65610000     -67.98900000
C      -44.57440000     -35.05500000     -72.76180000
H      -45.37010000     -34.68780000     -72.12910000
H      -44.93250000     -35.21740000     -73.75320000
C      -43.45890000     -33.91060000     -72.68070000
H      -43.07020000     -33.91080000     -71.73930000
H      -42.60340000     -34.23200000     -73.34250000
C      -45.03830000     -32.60340000     -69.94100000
H      -45.66520000     -33.38140000     -70.39220000
H      -44.11100000     -33.13110000     -69.73990000
C      -44.69620000     -31.38760000     -70.82880000
C      -45.06110000     -30.10950000     -70.49220000
C      -44.32280000     -31.51720000     -72.18970000
H      -45.32420000     -29.76560000     -69.45050000
C      -44.46190000     -30.27080000     -72.87830000
C      -43.86860000     -32.52940000     -73.12050000
C      -43.59690000     -32.08020000     -74.34150000
S      -44.91660000     -29.02320000     -71.82650000
S      -43.93660000     -30.35530000     -74.57490000
H      -43.34960000     -32.68570000     -75.22930000
