40
Properties=species:S:1:pos:R:3 #=T CELL(abcABC):=T 1.889726e+02=T 90.00000=T Traj:=T positionsangstrom=T Step:=T 0=T Bead:=T pbc="F F F"
C      -42.28660000     -32.55680000     -73.51230000
C      -42.92880000     -33.21740000     -72.45460000
C      -43.57580000     -32.53560000     -71.47800000
C      -43.68280000     -31.12570000     -71.50690000
C      -43.00810000     -30.47780000     -72.53070000
C      -42.34030000     -31.14480000     -73.54840000
H      -41.79570000     -33.10110000     -74.35210000
H      -44.08690000     -33.16300000     -70.79010000
H      -43.17650000     -29.38670000     -72.76890000
H      -41.90040000     -30.47130000     -74.29490000
C      -44.63530000     -30.48160000     -70.50460000
H      -44.11190000     -29.56380000     -70.21060000
H      -44.71490000     -31.12530000     -69.55140000
C      -42.84340000     -34.72610000     -72.39580000
H      -41.81610000     -35.11400000     -72.62280000
H      -43.17720000     -35.04370000     -71.39160000
S      -46.19530000     -30.01480000     -71.36010000
S      -43.87590000     -35.51400000     -73.81370000
C      -46.78160000     -31.46320000     -72.42920000
H      -47.12510000     -31.00820000     -73.37100000
H      -45.82410000     -32.01640000     -72.52650000
C      -45.53560000     -34.71780000     -73.54720000
H      -45.90910000     -34.48950000     -74.56760000
H      -45.33630000     -33.76050000     -73.06800000
C      -46.58810000     -35.57130000     -72.78960000
H      -47.57040000     -35.16420000     -73.07880000
H      -46.55170000     -36.60600000     -73.21440000
C      -47.89270000     -32.36810000     -71.88750000
H      -48.18530000     -33.09640000     -72.66400000
H      -48.82820000     -31.81590000     -71.68260000
C      -47.33400000     -33.07190000     -70.66240000
C      -47.31970000     -32.38790000     -69.45950000
C      -46.71490000     -34.39740000     -70.45050000
H      -47.87700000     -31.43990000     -69.36920000
C      -46.57580000     -34.71430000     -69.09650000
C      -46.40080000     -35.56640000     -71.28920000
C      -45.78620000     -36.57630000     -70.60630000
S      -46.65480000     -33.32150000     -68.07520000
S      -45.80390000     -36.30730000     -68.87410000
H      -45.44110000     -37.53700000     -70.96900000
