40
Properties=species:S:1:pos:R:3 #=T CELL(abcABC):=T 1.889726e+02=T 90.00000=T Traj:=T positionsangstrom=T Step:=T 0=T Bead:=T pbc="F F F"
C      -42.17000000     -32.46190000     -73.30170000
C      -42.80800000     -33.26600000     -72.37470000
C      -43.70100000     -32.63700000     -71.42230000
C      -43.86040000     -31.28920000     -71.35940000
C      -43.22140000     -30.52390000     -72.33450000
C      -42.37630000     -31.08470000     -73.27120000
H      -41.51690000     -32.92900000     -74.05560000
H      -44.22140000     -33.24130000     -70.68700000
H      -43.25300000     -29.44880000     -72.43050000
H      -41.77750000     -30.42750000     -73.98390000
C      -44.83660000     -30.61260000     -70.45260000
H      -44.39850000     -29.72340000     -69.98350000
H      -45.16900000     -31.35540000     -69.75810000
C      -42.77720000     -34.77780000     -72.45000000
H      -41.76620000     -35.07440000     -72.78260000
H      -42.99670000     -35.27860000     -71.51870000
S      -46.32440000     -29.95840000     -71.36280000
S      -43.86490000     -35.54540000     -73.68520000
C      -46.76790000     -31.35590000     -72.54430000
H      -47.06980000     -30.98670000     -73.50110000
H      -45.82670000     -31.87040000     -72.78610000
C      -45.51110000     -34.66220000     -73.65540000
H      -45.83710000     -34.41830000     -74.68120000
H      -45.29570000     -33.70870000     -73.16490000
C      -46.60360000     -35.43380000     -72.93140000
H      -47.59470000     -35.06210000     -73.17310000
H      -46.59030000     -36.47150000     -73.36020000
C      -47.77490000     -32.41190000     -71.88500000
H      -47.86480000     -33.24750000     -72.52350000
H      -48.77290000     -31.96290000     -71.75920000
C      -47.16930000     -32.95420000     -70.63370000
C      -47.40480000     -32.50780000     -69.31510000
C      -46.59730000     -34.23740000     -70.56740000
H      -47.77820000     -31.47830000     -69.19670000
C      -46.35570000     -34.66920000     -69.26770000
C      -46.40830000     -35.38830000     -71.43890000
C      -46.02470000     -36.55320000     -70.77020000
S      -46.62270000     -33.46690000     -68.04510000
S      -45.65050000     -36.27910000     -69.09720000
H      -46.20020000     -37.54540000     -71.07650000
