40
Properties=species:S:1:pos:R:3 #=T CELL(abcABC):=T 1.889726e+02=T 90.00000=T Traj:=T positionsangstrom=T Step:=T 0=T Bead:=T pbc="F F F"
C      -42.13220000     -32.39390000     -73.21310000
C      -42.95770000     -33.28010000     -72.39820000
C      -43.81320000     -32.62900000     -71.47890000
C      -43.92640000     -31.22360000     -71.41090000
C      -43.19660000     -30.48020000     -72.28640000
C      -42.33650000     -31.07170000     -73.22960000
H      -41.40920000     -32.72120000     -73.96890000
H      -44.39290000     -33.25810000     -70.78960000
H      -43.34660000     -29.44950000     -72.23270000
H      -41.80610000     -30.39120000     -73.86300000
C      -44.80830000     -30.61010000     -70.41370000
H      -44.41280000     -29.69010000     -69.92010000
H      -45.11780000     -31.22730000     -69.61810000
C      -42.79850000     -34.79510000     -72.32870000
H      -41.79570000     -35.08520000     -72.40470000
H      -43.15600000     -35.16330000     -71.33460000
S      -46.40830000     -29.88480000     -71.31530000
S      -43.82240000     -35.65490000     -73.68650000
C      -46.92640000     -31.28090000     -72.39660000
H      -47.37250000     -30.69350000     -73.23690000
H      -46.00360000     -31.82450000     -72.70770000
C      -45.40170000     -34.73080000     -73.70550000
H      -45.61610000     -34.65540000     -74.75130000
H      -45.14180000     -33.74600000     -73.26940000
C      -46.61580000     -35.27040000     -73.00960000
H      -47.40270000     -34.60120000     -73.20880000
H      -46.84800000     -36.28360000     -73.38480000
C      -47.96170000     -32.32230000     -71.74160000
H      -48.29830000     -33.02660000     -72.50830000
H      -48.92780000     -31.81220000     -71.40840000
C      -47.30930000     -33.06790000     -70.62710000
C      -47.32570000     -32.46910000     -69.37060000
C      -46.64770000     -34.35840000     -70.50730000
H      -47.72330000     -31.46690000     -69.15530000
C      -46.35980000     -34.78850000     -69.22820000
C      -46.31470000     -35.38500000     -71.51520000
C      -45.72700000     -36.51920000     -70.96460000
S      -46.59490000     -33.47160000     -68.09600000
S      -45.56400000     -36.35410000     -69.18360000
H      -45.20980000     -37.25380000     -71.55210000
