40
Properties=species:S:1:pos:R:3 #=T CELL(abcABC):=T 1.889726e+02=T 90.00000=T Traj:=T positionsangstrom=T Step:=T 0=T Bead:=T pbc="F F F"
C      -42.26000000     -32.57420000     -73.22220000
C      -43.00150000     -33.27820000     -72.25350000
C      -43.82170000     -32.52630000     -71.39200000
C      -43.86430000     -31.14110000     -71.43720000
C      -43.14150000     -30.50700000     -72.49440000
C      -42.29270000     -31.20120000     -73.27160000
H      -41.43890000     -33.01460000     -73.82770000
H      -44.53620000     -32.91100000     -70.60070000
H      -43.20250000     -29.40790000     -72.46330000
H      -41.62840000     -30.80340000     -73.94780000
C      -44.85810000     -30.40360000     -70.54850000
H      -44.41960000     -29.45380000     -70.25540000
H      -44.99760000     -30.98670000     -69.59800000
C      -42.89730000     -34.74920000     -72.18590000
H      -41.89570000     -35.09130000     -72.18270000
H      -43.53670000     -35.15200000     -71.32450000
S      -46.48840000     -29.84450000     -71.32280000
S      -43.71480000     -35.50670000     -73.72140000
C      -46.97080000     -31.36780000     -72.32340000
H      -47.57570000     -31.03870000     -73.16120000
H      -46.12970000     -31.86360000     -72.73040000
C      -45.34630000     -34.62680000     -73.89300000
H      -45.62380000     -34.56070000     -74.95740000
H      -45.30970000     -33.57400000     -73.57100000
C      -46.54690000     -35.25220000     -73.08920000
H      -47.50330000     -34.72630000     -73.43700000
H      -46.71260000     -36.30240000     -73.38610000
C      -47.96110000     -32.30330000     -71.59570000
H      -48.30950000     -33.06320000     -72.27740000
H      -48.76860000     -31.73960000     -71.26240000
C      -47.38580000     -33.08660000     -70.48520000
C      -47.33720000     -32.57670000     -69.18450000
C      -46.66850000     -34.35430000     -70.54310000
H      -47.83820000     -31.71900000     -68.71030000
C      -46.31850000     -34.83110000     -69.30190000
C      -46.29530000     -35.33400000     -71.54960000
C      -45.64400000     -36.40100000     -71.00710000
S      -46.67290000     -33.69530000     -67.97220000
S      -45.46920000     -36.37040000     -69.28100000
H      -45.33870000     -37.22220000     -71.67520000
