40
Properties=species:S:1:pos:R:3 #=T CELL(abcABC):=T 1.889726e+02=T 90.00000=T Traj:=T positionsangstrom=T Step:=T 0=T Bead:=T pbc="F F F"
C      -47.43230000     -31.64690000     -68.39920000
C      -46.81860000     -30.92690000     -69.46520000
C      -47.37390000     -31.01740000     -70.72570000
C      -48.38490000     -31.97700000     -71.00830000
C      -48.88160000     -32.76090000     -69.94930000
C      -48.45480000     -32.55210000     -68.63750000
H      -47.04340000     -31.40030000     -67.44890000
H      -47.00570000     -30.45970000     -71.57030000
H      -49.67110000     -33.51720000     -70.19160000
H      -48.91230000     -33.10500000     -67.81300000
C      -48.94560000     -32.01130000     -72.41720000
H      -49.24670000     -31.03570000     -72.66100000
H      -49.88870000     -32.62860000     -72.44950000
C      -45.63760000     -30.04490000     -69.19750000
H      -45.74340000     -29.13150000     -69.83070000
H      -45.60150000     -29.71100000     -68.15660000
S      -47.79940000     -32.67200000     -73.69350000
S      -44.10400000     -31.11050000     -69.44540000
C      -47.36100000     -34.31400000     -73.01530000
H      -47.06630000     -34.28660000     -71.92350000
H      -48.19830000     -35.02090000     -73.23950000
C      -43.94730000     -30.94610000     -71.24040000
H      -42.93210000     -30.46980000     -71.42970000
H      -44.55390000     -30.13830000     -71.60530000
C      -44.25380000     -32.20760000     -72.11700000
H      -45.32880000     -32.27220000     -72.13970000
H      -43.91470000     -32.03060000     -73.18700000
C      -46.05000000     -34.84610000     -73.71910000
H      -45.62790000     -33.98440000     -74.29180000
H      -46.33250000     -35.54970000     -74.44780000
C      -44.87820000     -35.46050000     -72.88190000
C      -44.63670000     -36.79630000     -72.97620000
C      -43.87880000     -34.79590000     -72.06430000
H      -45.16160000     -37.53880000     -73.63100000
C      -42.93510000     -35.70730000     -71.55820000
C      -43.53410000     -33.47290000     -71.64260000
C      -42.45590000     -33.48490000     -70.75480000
S      -43.13170000     -37.38460000     -72.07840000
S      -41.73700000     -35.07090000     -70.49070000
H      -41.96550000     -32.64580000     -70.28040000
