40
Properties=species:S:1:pos:R:3 #=T CELL(abcABC):=T 1.889726e+02=T 90.00000=T Traj:=T positionsangstrom=T Step:=T 0=T Bead:=T pbc="F F F"
C      -42.07730000     -32.02390000     -73.20100000
C      -42.87520000     -32.88590000     -72.37000000
C      -43.85820000     -32.36730000     -71.48830000
C      -44.14730000     -30.99490000     -71.54740000
C      -43.33900000     -30.16810000     -72.37790000
C      -42.25170000     -30.62950000     -73.15840000
H      -41.34220000     -32.53260000     -73.90990000
H      -44.44360000     -33.02720000     -70.89560000
H      -43.46130000     -29.12890000     -72.32510000
H      -41.58320000     -29.97220000     -73.68360000
C      -45.17540000     -30.42360000     -70.64230000
H      -44.92130000     -29.48470000     -70.20980000
H      -45.41280000     -31.09100000     -69.81330000
C      -42.64940000     -34.40920000     -72.41490000
H      -41.59520000     -34.62010000     -72.58380000
H      -42.93730000     -34.89380000     -71.45040000
S      -46.78630000     -29.97900000     -71.54730000
S      -43.63660000     -35.23800000     -73.77540000
C      -47.35510000     -31.58830000     -72.24550000
H      -47.99870000     -31.51660000     -73.10390000
H      -46.44890000     -32.18350000     -72.55010000
C      -45.29460000     -34.38500000     -73.86810000
H      -45.53410000     -34.22450000     -74.91270000
H      -45.19730000     -33.43120000     -73.40080000
C      -46.38190000     -35.18250000     -73.08530000
H      -47.31470000     -34.60370000     -73.17910000
H      -46.54130000     -36.17530000     -73.50450000
C      -48.09820000     -32.56360000     -71.28950000
H      -48.57600000     -33.27400000     -71.98220000
H      -48.96920000     -32.10020000     -70.78670000
C      -47.26860000     -33.29130000     -70.23880000
C      -47.30270000     -32.90580000     -68.88440000
C      -46.55500000     -34.53270000     -70.41500000
H      -47.64520000     -31.98090000     -68.48710000
C      -46.19750000     -35.05810000     -69.15960000
C      -46.15990000     -35.35620000     -71.56590000
C      -45.49120000     -36.44020000     -71.14480000
S      -46.71790000     -34.14430000     -67.80230000
S      -45.25160000     -36.58430000     -69.45430000
H      -44.93040000     -37.16600000     -71.74380000
