40
Properties=species:S:1:pos:R:3 #=T CELL(abcABC):=T 1.889726e+02=T 90.00000=T Traj:=T positionsangstrom=T Step:=T 0=T Bead:=T pbc="F F F"
C      -42.60470000     -31.49850000     -72.85590000
C      -43.20180000     -32.60560000     -72.14410000
C      -44.14370000     -32.38220000     -71.14380000
C      -44.54710000     -31.04210000     -70.83060000
C      -43.88200000     -29.98980000     -71.50420000
C      -42.95820000     -30.23490000     -72.52400000
H      -41.91490000     -31.68220000     -73.73600000
H      -44.45960000     -33.32410000     -70.55240000
H      -44.20980000     -28.92620000     -71.34800000
H      -42.39270000     -29.49890000     -73.09370000
C      -45.54770000     -30.76480000     -69.75350000
H      -45.13610000     -29.93250000     -69.24570000
H      -45.61510000     -31.69390000     -69.10700000
C      -42.64350000     -34.03350000     -72.48330000
H      -41.57630000     -34.13570000     -72.50710000
H      -42.93110000     -34.68160000     -71.64340000
S      -47.19510000     -30.27610000     -70.51710000
S      -43.28210000     -34.74910000     -74.03320000
C      -47.27670000     -31.31140000     -72.06140000
H      -48.02600000     -30.86760000     -72.70650000
H      -46.28250000     -31.20980000     -72.53660000
C      -45.08790000     -34.31310000     -73.98540000
H      -45.42640000     -34.03860000     -74.99860000
H      -45.24690000     -33.36370000     -73.39200000
C      -45.93780000     -35.49830000     -73.47050000
H      -46.97940000     -35.18930000     -73.69980000
H      -45.63660000     -36.41680000     -73.96410000
C      -47.79460000     -32.75020000     -71.98070000
H      -47.49350000     -33.30300000     -72.88200000
H      -48.91260000     -32.69330000     -71.83660000
C      -47.21230000     -33.55850000     -70.83520000
C      -47.52950000     -33.28960000     -69.52390000
C      -46.33490000     -34.68750000     -70.89060000
H      -48.08190000     -32.40220000     -69.28490000
C      -45.86730000     -35.18370000     -69.65540000
C      -45.76410000     -35.56800000     -71.89900000
C      -45.06810000     -36.63110000     -71.41830000
S      -46.71680000     -34.36150000     -68.36290000
S      -44.84680000     -36.52870000     -69.71590000
H      -44.71710000     -37.38170000     -72.03370000
