40
Properties=species:S:1:pos:R:3 #=T CELL(abcABC):=T 1.889726e+02=T 90.00000=T Traj:=T positionsangstrom=T Step:=T 0=T Bead:=T pbc="F F F"
C      -48.77110000     -34.74300000     -72.97840000
C      -47.63490000     -35.35210000     -72.29920000
C      -47.59720000     -35.33990000     -70.90600000
C      -48.56540000     -34.69750000     -70.19350000
C      -49.58650000     -33.99160000     -70.85470000
C      -49.67290000     -34.00600000     -72.21490000
H      -48.88840000     -34.72250000     -74.03620000
H      -46.80600000     -35.86100000     -70.35110000
H      -50.20090000     -33.31740000     -70.28540000
H      -50.44270000     -33.49580000     -72.80700000
C      -48.42650000     -34.54890000     -68.68970000
H      -47.75010000     -35.29290000     -68.29950000
H      -49.38950000     -34.60530000     -68.05890000
C      -46.83160000     -36.38130000     -73.07530000
H      -46.00380000     -36.86390000     -72.58290000
H      -47.50870000     -37.09870000     -73.52640000
S      -47.74980000     -32.81840000     -68.20870000
S      -46.05240000     -35.58850000     -74.60160000
C      -45.93970000     -32.76980000     -68.59630000
H      -45.44390000     -32.12140000     -67.88610000
H      -45.57810000     -33.75610000     -68.42580000
C      -44.39030000     -34.87000000     -73.95160000
H      -44.15740000     -34.19200000     -74.76120000
H      -43.76300000     -35.70380000     -73.89140000
C      -44.54660000     -34.05410000     -72.68890000
H      -45.44260000     -33.37150000     -72.67020000
H      -44.77830000     -34.87010000     -71.92530000
C      -45.56230000     -32.39240000     -69.99470000
H      -46.12770000     -31.46630000     -70.15260000
H      -45.71520000     -33.13220000     -70.75740000
C      -44.10810000     -31.93970000     -70.12230000
C      -43.50770000     -31.00810000     -69.31680000
C      -43.25450000     -32.29710000     -71.20610000
H      -43.95040000     -30.49250000     -68.46910000
C      -42.00020000     -31.65390000     -71.11260000
C      -43.33690000     -33.24670000     -72.37120000
C      -42.22750000     -33.17490000     -73.12200000
S      -41.91540000     -30.47850000     -69.83140000
S      -41.02170000     -32.12410000     -72.45390000
H      -42.10580000     -33.88960000     -73.96390000
