40
Properties=species:S:1:pos:R:3 #=T CELL(abcABC):=T 1.889726e+02=T 90.00000=T Traj:=T positionsangstrom=T Step:=T 0=T Bead:=T pbc="F F F"
C      -42.72620000     -30.36580000     -72.24560000
C      -43.05190000     -31.74350000     -71.98880000
C      -44.08340000     -31.91940000     -71.04140000
C      -44.77950000     -30.90520000     -70.43090000
C      -44.35370000     -29.57620000     -70.64120000
C      -43.41420000     -29.30590000     -71.64860000
H      -42.09940000     -30.16190000     -73.03480000
H      -44.39360000     -32.92730000     -70.77540000
H      -45.01850000     -28.76280000     -70.24340000
H      -43.17790000     -28.24770000     -71.84940000
C      -45.79430000     -31.22080000     -69.40700000
H      -45.85290000     -30.71990000     -68.49800000
H      -45.68860000     -32.28180000     -69.07160000
C      -42.28170000     -32.90540000     -72.51690000
H      -41.30500000     -32.64970000     -72.92380000
H      -42.01830000     -33.75020000     -71.86450000
S      -47.59390000     -31.09010000     -69.95910000
S      -43.06640000     -33.63050000     -74.05160000
C      -47.42920000     -31.67610000     -71.63860000
H      -48.13540000     -31.04550000     -72.17360000
H      -46.42750000     -31.57380000     -72.09170000
C      -44.89720000     -33.48480000     -73.90990000
H      -45.23900000     -32.96850000     -74.84300000
H      -45.14790000     -32.88540000     -73.06310000
C      -45.63320000     -34.81790000     -73.85750000
H      -46.68660000     -34.63960000     -74.15540000
H      -45.15430000     -35.47010000     -74.53340000
C      -47.96150000     -33.16770000     -71.73920000
H      -47.93070000     -33.57330000     -72.78810000
H      -48.97410000     -33.12110000     -71.46610000
C      -47.31990000     -34.15880000     -70.80360000
C      -47.57790000     -34.23310000     -69.47180000
C      -46.24240000     -35.06190000     -71.22750000
H      -48.31410000     -33.60360000     -68.99070000
C      -45.81320000     -35.85070000     -70.17020000
C      -45.54240000     -35.45890000     -72.48630000
C      -44.72190000     -36.52130000     -72.24610000
S      -46.55080000     -35.33770000     -68.67500000
S      -44.72740000     -37.13590000     -70.60400000
H      -44.08320000     -37.05970000     -72.92710000
