40
Properties=species:S:1:pos:R:3 #=T CELL(abcABC):=T 1.889726e+02=T 90.00000=T Traj:=T positionsangstrom=T Step:=T 0=T Bead:=T pbc="F F F"
C      -47.81150000     -34.71940000     -70.73970000
C      -47.86630000     -33.32650000     -70.38110000
C      -47.73460000     -32.39220000     -71.44880000
C      -47.46740000     -32.89660000     -72.73940000
C      -47.23920000     -34.21580000     -73.04500000
C      -47.53320000     -35.15860000     -72.03700000
H      -48.07810000     -35.40940000     -69.94270000
H      -47.75500000     -31.31660000     -71.18870000
H      -47.07480000     -34.48820000     -74.06530000
H      -47.55140000     -36.20350000     -72.30930000
C      -47.21330000     -31.81810000     -73.79310000
H      -48.10430000     -31.08860000     -73.81330000
H      -47.29310000     -32.36750000     -74.74040000
C      -48.16490000     -32.94280000     -69.00080000
H      -48.61340000     -31.95290000     -68.83490000
H      -48.96810000     -33.58390000     -68.56160000
S      -45.45140000     -31.08170000     -73.81040000
S      -46.73120000     -33.27030000     -67.89980000
C      -45.03420000     -30.77450000     -72.02080000
H      -45.21660000     -29.76190000     -71.68730000
H      -45.56520000     -31.38940000     -71.30890000
C      -45.54010000     -32.09630000     -68.61630000
H      -45.48810000     -31.19550000     -68.04780000
H      -45.91590000     -31.69510000     -69.58040000
C      -44.14910000     -32.70450000     -68.81850000
H      -43.46300000     -31.97230000     -69.19290000
H      -43.81700000     -33.12540000     -67.87380000
C      -43.57830000     -31.08400000     -71.83510000
H      -43.34210000     -30.87350000     -70.75330000
H      -42.97810000     -30.50490000     -72.56350000
C      -43.23540000     -32.55430000     -72.11130000
C      -42.61910000     -33.08760000     -73.22520000
C      -43.75840000     -33.62120000     -71.20040000
H      -42.05030000     -32.52620000     -73.98870000
C      -43.52420000     -34.85010000     -71.79240000
C      -44.09380000     -33.86270000     -69.84100000
C      -44.31230000     -35.14000000     -69.48490000
S      -42.72490000     -34.79390000     -73.35010000
S      -43.99200000     -36.24000000     -70.80600000
H      -44.64160000     -35.46280000     -68.49990000
