40
Properties=species:S:1:pos:R:3 #=T CELL(abcABC):=T 1.889726e+02=T 90.00000=T Traj:=T positionsangstrom=T Step:=T 0=T Bead:=T pbc="F F F"
C      -43.00000000     -30.44720000     -72.25060000
C      -43.36040000     -31.77770000     -71.78510000
C      -44.18410000     -31.90410000     -70.63620000
C      -44.77390000     -30.74230000     -70.08400000
C      -44.49770000     -29.46320000     -70.63200000
C      -43.57580000     -29.36240000     -71.67960000
H      -42.40310000     -30.40180000     -73.13310000
H      -44.43470000     -32.86150000     -70.24400000
H      -44.95890000     -28.62200000     -70.17860000
H      -43.43900000     -28.31770000     -72.05950000
C      -45.78540000     -30.96490000     -68.99470000
H      -45.79590000     -30.17780000     -68.31590000
H      -45.48780000     -32.00530000     -68.50720000
C      -42.88200000     -32.99170000     -72.48440000
H      -41.83830000     -32.94290000     -72.50310000
H      -43.28600000     -33.83820000     -71.95050000
S      -47.53260000     -31.04900000     -69.80650000
S      -43.36710000     -32.98760000     -74.28410000
C      -47.44890000     -31.70940000     -71.49820000
H      -48.12560000     -31.11280000     -72.18680000
H      -46.34150000     -31.61560000     -71.81010000
C      -45.25110000     -33.30060000     -74.09880000
H      -45.64570000     -32.97980000     -75.08890000
H      -45.56340000     -32.71410000     -73.21110000
C      -45.61300000     -34.72650000     -73.79450000
H      -46.71330000     -34.73320000     -73.86790000
H      -45.33230000     -35.46650000     -74.53630000
C      -47.91480000     -33.22620000     -71.59580000
H      -47.98180000     -33.55460000     -72.66160000
H      -48.88900000     -33.26710000     -71.15710000
C      -47.09210000     -34.32820000     -70.82540000
C      -47.45140000     -34.66150000     -69.52750000
C      -46.06810000     -35.22100000     -71.29940000
H      -48.33310000     -34.26330000     -68.95830000
C      -45.64030000     -36.11390000     -70.33910000
C      -45.20520000     -35.31920000     -72.47290000
C      -44.32220000     -36.33480000     -72.41880000
S      -46.53350000     -36.00870000     -68.85160000
S      -44.25740000     -37.06320000     -70.79640000
H      -43.69010000     -36.65220000     -73.20400000
