40
Properties=species:S:1:pos:R:3 #=T CELL(abcABC):=T 1.889726e+02=T 90.00000=T Traj:=T positionsangstrom=T Step:=T 0=T Bead:=T pbc="F F F"
C      -42.93060000     -30.45740000     -72.26110000
C      -43.22260000     -31.70280000     -71.74180000
C      -44.21330000     -31.94340000     -70.73700000
C      -44.77730000     -30.83980000     -70.11540000
C      -44.36250000     -29.52330000     -70.59520000
C      -43.45160000     -29.33610000     -71.60730000
H      -42.19130000     -30.46650000     -73.06670000
H      -44.57050000     -32.91730000     -70.53700000
H      -44.81080000     -28.68110000     -70.09720000
H      -43.19280000     -28.32540000     -71.95900000
C      -45.85230000     -30.97020000     -69.10350000
H      -45.90830000     -30.16710000     -68.38340000
H      -45.57260000     -31.83670000     -68.42090000
C      -42.75150000     -32.88240000     -72.50510000
H      -41.66940000     -33.05070000     -72.58580000
H      -43.02670000     -33.85610000     -72.00180000
S      -47.69810000     -31.16820000     -69.69070000
S      -43.51990000     -32.98120000     -74.24090000
C      -47.35800000     -31.97300000     -71.45030000
H      -47.75340000     -31.31490000     -72.10650000
H      -46.29960000     -31.99760000     -71.50800000
C      -45.28270000     -33.19000000     -74.05650000
H      -45.80970000     -32.89120000     -74.92210000
H      -45.75360000     -32.57550000     -73.25930000
C      -45.80640000     -34.63090000     -73.81490000
H      -46.87540000     -34.66870000     -74.01170000
H      -45.22370000     -35.25830000     -74.55880000
C      -47.95670000     -33.40790000     -71.57110000
H      -47.95740000     -33.69180000     -72.62300000
H      -48.97030000     -33.37510000     -71.23700000
C      -47.17400000     -34.40850000     -70.76450000
C      -47.46540000     -34.76180000     -69.46630000
C      -46.00080000     -35.07420000     -71.25520000
H      -48.22440000     -34.40520000     -68.75510000
C      -45.43810000     -35.94860000     -70.30180000
C      -45.38660000     -35.30040000     -72.56670000
C      -44.49250000     -36.32320000     -72.56990000
S      -46.32630000     -35.94490000     -68.79660000
S      -44.21990000     -36.97050000     -70.98960000
H      -43.81660000     -36.49820000     -73.40600000
