40
Properties=species:S:1:pos:R:3 #=T CELL(abcABC):=T 1.889726e+02=T 90.00000=T Traj:=T positionsangstrom=T Step:=T 0=T Bead:=T pbc="F F F"
C      -42.96420000     -30.30690000     -72.13470000
C      -43.31210000     -31.61450000     -71.91080000
C      -44.29320000     -31.98850000     -70.95270000
C      -44.98550000     -31.07510000     -70.20150000
C      -44.55140000     -29.76010000     -70.27890000
C      -43.60920000     -29.36530000     -71.29670000
H      -42.29220000     -30.05410000     -72.95590000
H      -44.59010000     -33.06690000     -70.79470000
H      -44.93080000     -28.85610000     -69.64500000
H      -43.28900000     -28.30980000     -71.40530000
C      -46.02920000     -31.55760000     -69.19250000
H      -45.75720000     -31.07140000     -68.23500000
H      -45.95600000     -32.64320000     -69.20800000
C      -42.68250000     -32.77160000     -72.67620000
H      -41.66160000     -32.46490000     -72.91640000
H      -42.70880000     -33.52420000     -71.97020000
S      -47.78600000     -31.27110000     -69.53710000
S      -43.45690000     -33.32930000     -74.20480000
C      -48.03980000     -31.98150000     -71.17560000
H      -48.90220000     -31.44120000     -71.51780000
H      -47.21280000     -31.80550000     -71.79420000
C      -45.26310000     -33.16490000     -74.18970000
H      -45.53990000     -32.93850000     -75.25520000
H      -45.51660000     -32.49250000     -73.42360000
C      -46.01720000     -34.46890000     -73.89960000
H      -47.16650000     -34.41200000     -73.83470000
H      -45.94660000     -35.06500000     -74.78270000
C      -48.28730000     -33.54920000     -71.17930000
H      -48.52740000     -33.73520000     -72.24610000
H      -49.11660000     -33.81930000     -70.50380000
C      -47.14620000     -34.41730000     -70.63530000
C      -47.09240000     -34.71160000     -69.28010000
C      -46.04270000     -35.05590000     -71.35400000
H      -47.78060000     -34.42860000     -68.56010000
C      -45.20820000     -35.73800000     -70.45750000
C      -45.60250000     -35.23100000     -72.73250000
C      -44.53300000     -36.04730000     -72.86290000
S      -45.71060000     -35.68600000     -68.76780000
S      -44.05440000     -36.71030000     -71.25410000
H      -44.09250000     -36.44880000     -73.79350000
