40
Properties=species:S:1:pos:R:3 #=T CELL(abcABC):=T 1.889726e+02=T 90.00000=T Traj:=T positionsangstrom=T Step:=T 0=T Bead:=T pbc="F F F"
C      -46.63950000     -35.13940000     -72.16020000
C      -47.52000000     -34.27910000     -71.61290000
C      -47.78320000     -33.00180000     -72.19100000
C      -47.00900000     -32.57700000     -73.26260000
C      -46.06370000     -33.50330000     -73.80240000
C      -45.87110000     -34.76190000     -73.31770000
H      -46.39380000     -36.06270000     -71.61440000
H      -48.46620000     -32.30230000     -71.80740000
H      -45.51820000     -33.14510000     -74.73340000
H      -45.04730000     -35.36280000     -73.81080000
C      -47.07860000     -31.19230000     -73.86570000
H      -47.88360000     -30.60310000     -73.49680000
H      -47.08300000     -31.16700000     -74.94830000
C      -48.37840000     -34.71090000     -70.44830000
H      -49.37470000     -34.21180000     -70.47020000
H      -48.62370000     -35.76260000     -70.50970000
S      -45.46720000     -30.40900000     -73.47310000
S      -47.56780000     -34.68820000     -68.86500000
C      -45.50680000     -30.41550000     -71.61910000
H      -45.79420000     -29.39430000     -71.25560000
H      -46.33320000     -31.05820000     -71.21710000
C      -46.79940000     -33.06180000     -68.93970000
H      -47.44300000     -32.38280000     -68.39920000
H      -46.76800000     -32.55710000     -69.93920000
C      -45.35250000     -32.94660000     -68.40390000
H      -45.00330000     -31.99080000     -68.40060000
H      -45.32460000     -33.28560000     -67.31850000
C      -44.21220000     -30.86110000     -70.93940000
H      -44.43750000     -30.84480000     -69.83470000
H      -43.39450000     -30.23630000     -71.16170000
C      -43.84730000     -32.25780000     -71.29300000
C      -43.15610000     -32.40420000     -72.47190000
C      -43.95940000     -33.41990000     -70.48240000
H      -42.77360000     -31.69570000     -73.16870000
C      -43.16050000     -34.42860000     -71.07940000
C      -44.48650000     -33.80680000     -69.20210000
C      -44.08250000     -35.07700000     -68.79390000
S      -42.62880000     -34.13290000     -72.67690000
S      -43.09790000     -35.84330000     -70.10080000
H      -44.26280000     -35.65220000     -67.83690000
