40
Properties=species:S:1:pos:R:3 #=T CELL(abcABC):=T 1.889726e+02=T 90.00000=T Traj:=T positionsangstrom=T Step:=T 0=T Bead:=T pbc="F F F"
C      -46.78430000     -35.31980000     -72.25420000
C      -47.74130000     -34.42750000     -71.78760000
C      -47.87470000     -33.16590000     -72.32510000
C      -46.91990000     -32.65010000     -73.17690000
C      -45.95140000     -33.52180000     -73.62500000
C      -45.93810000     -34.88580000     -73.26390000
H      -46.83210000     -36.34620000     -72.00660000
H      -48.63800000     -32.54030000     -72.06060000
H      -45.19440000     -33.12250000     -74.35980000
H      -45.21030000     -35.59260000     -73.68040000
C      -47.03330000     -31.23370000     -73.71910000
H      -47.83610000     -30.73730000     -73.25430000
H      -47.21450000     -31.36980000     -74.87690000
C      -48.58510000     -34.83220000     -70.64720000
H      -49.45050000     -34.17990000     -70.70300000
H      -48.78380000     -35.88960000     -70.67790000
S      -45.55380000     -30.16900000     -73.43890000
S      -47.69800000     -34.73490000     -69.04850000
C      -45.48560000     -30.30490000     -71.58630000
H      -45.65070000     -29.34400000     -71.15200000
H      -46.29890000     -31.01660000     -71.44010000
C      -46.85690000     -33.05240000     -68.97150000
H      -47.50920000     -32.39550000     -68.41850000
H      -46.74230000     -32.76330000     -70.00240000
C      -45.42510000     -33.15660000     -68.32670000
H      -45.10190000     -32.06510000     -68.19950000
H      -45.31680000     -33.65240000     -67.31670000
C      -44.20950000     -30.84060000     -70.89490000
H      -44.46370000     -30.87810000     -69.78680000
H      -43.42500000     -30.09140000     -71.01180000
C      -43.76570000     -32.16760000     -71.28180000
C      -42.94260000     -32.32340000     -72.37360000
C      -43.86190000     -33.42110000     -70.51680000
H      -42.64260000     -31.62600000     -73.06380000
C      -43.05890000     -34.38550000     -71.01450000
C      -44.47680000     -33.85100000     -69.24210000
C      -44.10260000     -35.13690000     -68.93150000
S      -42.31220000     -33.94510000     -72.52020000
S      -43.12670000     -35.86100000     -70.08010000
H      -44.59710000     -35.74750000     -68.17200000
