40
Properties=species:S:1:pos:R:3 #=T CELL(abcABC):=T 1.889726e+02=T 90.00000=T Traj:=T positionsangstrom=T Step:=T 0=T Bead:=T pbc="F F F"
C      -43.86460000     -34.97910000     -72.03550000
C      -43.16120000     -33.95520000     -72.74300000
C      -42.45000000     -33.02760000     -71.88710000
C      -42.46570000     -33.19770000     -70.49160000
C      -43.19910000     -34.20810000     -69.89790000
C      -43.85120000     -35.09860000     -70.67200000
H      -44.46140000     -35.68060000     -72.71600000
H      -41.98350000     -32.15260000     -72.22160000
H      -43.02350000     -34.30620000     -68.78120000
H      -44.55660000     -35.86760000     -70.25780000
C      -41.82710000     -32.14980000     -69.53820000
H      -40.99340000     -31.73660000     -70.10210000
H      -41.63330000     -32.58790000     -68.55870000
C      -43.17390000     -33.76620000     -74.23000000
H      -42.40290000     -33.09270000     -74.60550000
H      -43.14100000     -34.77370000     -74.76540000
S      -42.90290000     -30.70690000     -69.42650000
S      -44.88750000     -33.23350000     -74.72680000
C      -44.55480000     -31.27430000     -68.88820000
H      -44.38480000     -31.95290000     -68.10770000
H      -45.09120000     -30.48290000     -68.39730000
C      -45.39100000     -31.80030000     -73.69730000
H      -45.25110000     -30.85010000     -74.22430000
H      -44.61060000     -31.74350000     -72.77540000
C      -46.86510000     -31.92930000     -73.16990000
H      -47.02930000     -31.05700000     -72.44200000
H      -47.54170000     -31.73060000     -74.02990000
C      -45.46310000     -31.69200000     -70.00680000
H      -44.78650000     -31.84160000     -70.86770000
H      -46.11190000     -30.83110000     -70.30800000
C      -46.33080000     -32.98250000     -69.95950000
C      -46.56740000     -33.67100000     -68.80370000
C      -47.08430000     -33.51220000     -71.07570000
H      -46.08790000     -33.54310000     -67.80900000
C      -47.68520000     -34.72940000     -70.71690000
C      -47.27890000     -33.24390000     -72.47640000
C      -48.15410000     -34.15020000     -73.07700000
S      -47.56690000     -35.06900000     -69.03320000
S      -48.61800000     -35.46860000     -71.96130000
H      -48.47410000     -34.27970000     -74.11750000
