40
Properties=species:S:1:pos:R:3 #=T CELL(abcABC):=T 1.889726e+02=T 90.00000=T Traj:=T positionsangstrom=T Step:=T 0=T Bead:=T pbc="F F F"
C      -43.55120000     -35.23910000     -72.04480000
C      -43.11450000     -34.08250000     -72.67250000
C      -42.76230000     -33.01110000     -71.82790000
C      -42.66290000     -33.18750000     -70.41280000
C      -43.05360000     -34.41860000     -69.87340000
C      -43.55100000     -35.43610000     -70.61040000
H      -43.84780000     -35.99080000     -72.75210000
H      -42.52580000     -32.03950000     -72.35780000
H      -43.13380000     -34.57810000     -68.80760000
H      -43.78770000     -36.42280000     -70.28710000
C      -42.09060000     -32.14700000     -69.46800000
H      -41.18300000     -31.67450000     -69.92110000
H      -41.79610000     -32.51870000     -68.49720000
C      -43.31560000     -33.93440000     -74.18110000
H      -42.52870000     -33.22250000     -74.51670000
H      -43.02680000     -34.81100000     -74.66590000
S      -43.14700000     -30.63530000     -69.19250000
S      -45.00900000     -33.41370000     -74.72050000
C      -44.84600000     -31.08440000     -68.64040000
H      -44.82260000     -31.96330000     -68.05430000
H      -45.25210000     -30.29160000     -68.06060000
C      -45.38970000     -31.77230000     -73.82180000
H      -45.37730000     -30.84640000     -74.56810000
H      -44.61620000     -31.72070000     -73.08180000
C      -46.79100000     -31.76860000     -73.19900000
H      -46.79540000     -30.83680000     -72.55030000
H      -47.48600000     -31.53280000     -74.04950000
C      -45.76040000     -31.40160000     -69.86870000
H      -45.11780000     -31.32610000     -70.74580000
H      -46.57930000     -30.69710000     -69.96320000
C      -46.35350000     -32.86950000     -69.89000000
C      -46.43420000     -33.76010000     -68.79890000
C      -47.07960000     -33.41090000     -71.02790000
H      -46.09220000     -33.62340000     -67.80560000
C      -47.69290000     -34.65780000     -70.78150000
C      -47.28910000     -32.94040000     -72.38400000
C      -47.99590000     -33.85720000     -73.17280000
S      -47.30650000     -35.26890000     -69.23620000
S      -48.35310000     -35.32300000     -72.26400000
H      -48.30900000     -33.85500000     -74.19120000
