40
Properties=species:S:1:pos:R:3 #=T CELL(abcABC):=T 1.889726e+02=T 90.00000=T Traj:=T positionsangstrom=T Step:=T 0=T Bead:=T pbc="F F F"
C      -43.53440000     -35.27200000     -72.01010000
C      -43.17360000     -34.02430000     -72.45240000
C      -42.63470000     -33.01720000     -71.62160000
C      -42.73020000     -33.24860000     -70.16570000
C      -43.15680000     -34.52730000     -69.72550000
C      -43.55000000     -35.52140000     -70.64540000
H      -43.83080000     -36.01880000     -72.71780000
H      -42.32860000     -32.09480000     -72.04760000
H      -43.31350000     -34.57000000     -68.65500000
H      -43.74340000     -36.50930000     -70.19830000
C      -42.27470000     -32.17150000     -69.18670000
H      -41.21820000     -31.95060000     -69.25560000
H      -42.49120000     -32.48870000     -68.17670000
C      -43.21010000     -33.71120000     -73.93400000
H      -42.59190000     -32.92640000     -74.18700000
H      -43.06420000     -34.58430000     -74.60000000
S      -43.24250000     -30.63340000     -69.58110000
S      -45.03440000     -33.26710000     -74.42350000
C      -44.90760000     -31.16880000     -68.92480000
H      -44.66650000     -32.08730000     -68.33960000
H      -45.12930000     -30.40950000     -68.16210000
C      -45.27190000     -31.82040000     -73.47210000
H      -45.07220000     -30.90690000     -73.94600000
H      -44.65930000     -31.91550000     -72.53600000
C      -46.84270000     -31.74490000     -73.19690000
H      -47.07040000     -30.82970000     -72.65490000
H      -47.33850000     -31.63230000     -74.16870000
C      -46.02950000     -31.34580000     -69.95640000
H      -45.66060000     -30.98990000     -70.91580000
H      -46.86850000     -30.68210000     -69.70860000
C      -46.50010000     -32.77660000     -69.98470000
C      -46.46110000     -33.69330000     -68.95170000
C      -47.07940000     -33.34650000     -71.14690000
H      -46.23170000     -33.46030000     -67.89300000
C      -47.42830000     -34.74330000     -70.93280000
C      -47.32540000     -32.97080000     -72.51350000
C      -48.02260000     -33.93770000     -73.23950000
S      -47.22070000     -35.24590000     -69.34020000
S      -48.12950000     -35.46790000     -72.37420000
H      -48.24210000     -33.99810000     -74.31540000
