40
Properties=species:S:1:pos:R:3 #=T CELL(abcABC):=T 1.889726e+02=T 90.00000=T Traj:=T positionsangstrom=T Step:=T 0=T Bead:=T pbc="F F F"
C      -46.83370000     -35.58790000     -72.29550000
C      -47.77280000     -34.57520000     -71.95610000
C      -47.64870000     -33.34340000     -72.65050000
C      -46.61610000     -33.16310000     -73.57320000
C      -45.71750000     -34.16170000     -73.85250000
C      -45.83070000     -35.38320000     -73.15520000
H      -46.74370000     -36.62430000     -71.79360000
H      -48.43360000     -32.64410000     -72.51360000
H      -45.05250000     -34.04040000     -74.67960000
H      -45.11270000     -36.18070000     -73.29360000
C      -46.47270000     -31.78640000     -74.26620000
H      -47.54310000     -31.34540000     -74.28960000
H      -46.12550000     -31.94370000     -75.26610000
C      -48.74370000     -34.75880000     -70.85960000
H      -49.41560000     -33.89010000     -70.77110000
H      -49.52650000     -35.57330000     -71.07610000
S      -45.28840000     -30.65750000     -73.34530000
S      -48.00430000     -34.98360000     -69.17770000
C      -45.87740000     -30.52760000     -71.55500000
H      -46.48340000     -29.65440000     -71.37310000
H      -46.43890000     -31.41530000     -71.29770000
C      -47.20420000     -33.30830000     -69.08450000
H      -47.82540000     -32.69740000     -68.47160000
H      -47.09200000     -32.80930000     -70.05710000
C      -45.80390000     -33.24700000     -68.49570000
H      -45.66910000     -32.17700000     -68.38940000
H      -45.69810000     -33.73680000     -67.51000000
C      -44.69830000     -30.52820000     -70.47770000
H      -45.25890000     -30.70870000     -69.54980000
H      -44.09960000     -29.61580000     -70.53100000
C      -43.79470000     -31.66890000     -70.70240000
C      -42.73570000     -31.54140000     -71.65030000
C      -43.90920000     -33.01870000     -70.27800000
H      -42.35520000     -30.65800000     -72.18700000
C      -42.90690000     -33.94470000     -70.81040000
C      -44.68780000     -33.77270000     -69.36170000
C      -44.40530000     -35.16410000     -69.33610000
S      -41.87090000     -33.07730000     -71.86820000
S      -43.19190000     -35.61580000     -70.48220000
H      -45.00400000     -36.01520000     -68.92450000
