40
Properties=species:S:1:pos:R:3 #=T CELL(abcABC):=T 1.889726e+02=T 90.00000=T Traj:=T positionsangstrom=T Step:=T 0=T Bead:=T pbc="F F F"
C      -47.47490000     -36.11950000     -72.01290000
C      -46.33420000     -36.34740000     -71.25600000
C      -46.28110000     -35.82880000     -69.93190000
C      -47.37690000     -35.16460000     -69.36660000
C      -48.51560000     -34.84600000     -70.19960000
C      -48.47380000     -35.26390000     -71.52570000
H      -47.45770000     -36.66930000     -72.98010000
H      -45.37960000     -35.97560000     -69.34640000
H      -49.31570000     -34.18120000     -69.76830000
H      -49.35980000     -34.98810000     -72.07870000
C      -47.37500000     -34.77770000     -67.91640000
H      -47.41180000     -35.66690000     -67.24020000
H      -48.25040000     -34.09310000     -67.73360000
C      -45.20380000     -37.20890000     -71.83060000
H      -45.07210000     -38.17580000     -71.24980000
H      -45.39690000     -37.40830000     -72.85170000
S      -45.80170000     -33.87650000     -67.50370000
S      -43.55130000     -36.44090000     -71.55940000
C      -45.87600000     -32.52250000     -68.71640000
H      -46.87850000     -32.63630000     -69.21960000
H      -45.82740000     -31.53130000     -68.23460000
C      -43.83840000     -35.00480000     -72.69220000
H      -44.86140000     -34.69340000     -72.69700000
H      -43.71620000     -35.38960000     -73.73720000
C      -42.86960000     -33.80080000     -72.34880000
H      -42.76020000     -33.51170000     -71.33340000
H      -41.79510000     -33.99180000     -72.67510000
C      -44.94710000     -32.68810000     -69.93360000
H      -45.06210000     -33.69510000     -70.36900000
H      -43.94020000     -32.67980000     -69.50320000
C      -45.01060000     -31.60190000     -70.93220000
C      -45.60810000     -30.43090000     -70.79490000
C      -44.32400000     -31.62180000     -72.27780000
H      -46.25160000     -30.08710000     -69.88630000
C      -44.73500000     -30.60080000     -73.07890000
C      -43.46130000     -32.51500000     -72.97200000
C      -43.13130000     -32.10840000     -74.23510000
S      -45.74010000     -29.29540000     -72.23160000
S      -43.96940000     -30.53620000     -74.64730000
H      -42.45700000     -32.60950000     -74.94390000
