40
Properties=species:S:1:pos:R:3 #=T CELL(abcABC):=T 1.889726e+02=T 90.00000=T Traj:=T positionsangstrom=T Step:=T 0=T Bead:=T pbc="F F F"
C      -43.99210000     -29.86980000     -72.11530000
C      -44.16860000     -31.32270000     -72.24290000
C      -44.35360000     -31.95480000     -71.02520000
C      -44.56820000     -31.24770000     -69.81850000
C      -44.43300000     -29.83080000     -69.75470000
C      -44.03160000     -29.21460000     -70.97140000
H      -43.60260000     -29.35800000     -72.93400000
H      -44.34970000     -33.02030000     -70.92150000
H      -44.41630000     -29.27800000     -68.80550000
H      -43.88820000     -28.15590000     -71.17600000
C      -44.80850000     -32.22750000     -68.63830000
H      -44.39310000     -31.73080000     -67.77360000
H      -44.38760000     -33.22330000     -68.81710000
C      -44.18360000     -32.03110000     -73.55560000
H      -43.52640000     -31.63450000     -74.21830000
H      -43.99650000     -33.07160000     -73.42630000
S      -46.58560000     -32.31880000     -68.25140000
S      -45.82140000     -31.81600000     -74.38850000
C      -47.52190000     -32.67940000     -69.77580000
H      -48.52070000     -32.19640000     -69.59400000
H      -47.10280000     -32.06660000     -70.63750000
C      -47.05040000     -32.75400000     -73.45710000
H      -48.00210000     -32.33020000     -73.78490000
H      -46.95190000     -32.51070000     -72.42210000
C      -47.01360000     -34.30540000     -73.66750000
H      -47.98150000     -34.62310000     -73.18020000
H      -47.03210000     -34.54640000     -74.74390000
C      -47.70230000     -34.16440000     -70.07360000
H      -48.39740000     -34.18470000     -70.89610000
H      -48.37720000     -34.51280000     -69.27210000
C      -46.50910000     -34.98720000     -70.30600000
C      -45.78590000     -35.44960000     -69.22460000
C      -45.76640000     -35.25290000     -71.56360000
H      -46.05270000     -35.20720000     -68.20620000
C      -44.56690000     -35.90420000     -71.30590000
C      -45.89610000     -35.03610000     -72.98670000
C      -44.80310000     -35.54990000     -73.66730000
S      -44.28450000     -36.19770000     -69.56260000
S      -43.61640000     -36.28140000     -72.63850000
H      -44.46490000     -35.46350000     -74.70610000
