40
Properties=species:S:1:pos:R:3 #=T CELL(abcABC):=T 1.889726e+02=T 90.00000=T Traj:=T positionsangstrom=T Step:=T 0=T Bead:=T pbc="F F F"
C      -46.15510000     -35.52520000     -72.45720000
C      -47.26360000     -34.63510000     -72.14500000
C      -47.28270000     -33.46250000     -72.90600000
C      -46.37250000     -33.08390000     -73.84600000
C      -45.34690000     -33.98640000     -74.05070000
C      -45.23320000     -35.23020000     -73.45420000
H      -45.98140000     -36.50140000     -72.00940000
H      -48.09170000     -32.74310000     -72.78950000
H      -44.57360000     -33.57080000     -74.75440000
H      -44.42420000     -35.93950000     -73.55930000
C      -46.49230000     -31.79150000     -74.55020000
H      -47.53590000     -31.61350000     -74.73320000
H      -45.96670000     -31.88080000     -75.53820000
C      -48.32920000     -34.93600000     -71.14640000
H      -49.29010000     -34.33220000     -71.23850000
H      -48.65070000     -36.00400000     -71.29390000
S      -45.69440000     -30.42320000     -73.58920000
S      -47.80320000     -34.77950000     -69.31950000
C      -45.86280000     -30.67970000     -71.72580000
H      -46.41640000     -29.86410000     -71.33160000
H      -46.41440000     -31.63500000     -71.54330000
C      -47.48510000     -32.92180000     -69.09230000
H      -48.34440000     -32.41540000     -68.57370000
H      -47.57380000     -32.41700000     -70.05970000
C      -46.08340000     -32.57900000     -68.44970000
H      -45.93140000     -31.56760000     -68.62880000
H      -46.06420000     -32.75230000     -67.37020000
C      -44.49330000     -30.68780000     -70.97300000
H      -44.73120000     -30.37920000     -69.94690000
H      -43.95870000     -29.82230000     -71.32200000
C      -43.73910000     -31.94640000     -70.99070000
C      -42.75640000     -32.17600000     -71.87680000
C      -44.04660000     -33.04370000     -70.15450000
H      -42.31430000     -31.62050000     -72.69660000
C      -43.26730000     -34.13630000     -70.49370000
C      -44.94470000     -33.39350000     -69.01320000
C      -44.80550000     -34.73290000     -68.70820000
S      -42.01580000     -33.77010000     -71.69510000
S      -43.54360000     -35.60910000     -69.53220000
H      -45.55340000     -35.14260000     -68.10830000
