40
Properties=species:S:1:pos:R:3 #=T CELL(abcABC):=T 1.889726e+02=T 90.00000=T Traj:=T positionsangstrom=T Step:=T 0=T Bead:=T pbc="F F F"
C      -43.29590000     -35.40640000     -71.92790000
C      -43.04030000     -34.07750000     -72.10930000
C      -43.24160000     -33.20890000     -71.00740000
C      -43.81520000     -33.56840000     -69.83390000
C      -44.12420000     -34.94250000     -69.68500000
C      -43.75380000     -35.84620000     -70.65810000
H      -43.05240000     -36.08360000     -72.74770000
H      -43.10520000     -32.12810000     -71.13940000
H      -44.71640000     -35.28820000     -68.87070000
H      -43.94160000     -36.90760000     -70.55170000
C      -44.19780000     -32.71400000     -68.67140000
H      -43.51590000     -32.96780000     -67.79380000
H      -45.18150000     -32.93400000     -68.24880000
C      -42.38200000     -33.40490000     -73.29110000
H      -41.74720000     -32.60290000     -72.88360000
H      -41.73230000     -34.09210000     -73.83780000
S      -44.16470000     -30.91660000     -68.98680000
S      -43.62900000     -32.72130000     -74.49000000
C      -45.93960000     -30.43350000     -69.15260000
H      -46.39160000     -30.65710000     -68.22530000
H      -45.86060000     -29.31760000     -69.04830000
C      -44.56150000     -31.50250000     -73.47760000
H      -44.50790000     -30.52750000     -73.98120000
H      -44.22690000     -31.36900000     -72.46240000
C      -46.04090000     -32.00140000     -73.62710000
H      -46.64040000     -31.20220000     -73.24800000
H      -46.25240000     -32.05720000     -74.67570000
C      -46.69500000     -31.04010000     -70.28170000
H      -46.18720000     -30.81790000     -71.19240000
H      -47.66450000     -30.51080000     -70.35660000
C      -47.03760000     -32.55950000     -70.35640000
C      -47.67680000     -33.20870000     -69.32200000
C      -46.84920000     -33.37260000     -71.52700000
H      -47.86090000     -32.73930000     -68.32800000
C      -47.15320000     -34.71850000     -71.20390000
C      -46.35400000     -33.27380000     -72.87430000
C      -46.35220000     -34.50210000     -73.49550000
S      -47.83260000     -34.90860000     -69.60060000
S      -46.94550000     -35.83170000     -72.48480000
H      -46.17650000     -34.54710000     -74.61520000
