40
Properties=species:S:1:pos:R:3 #=T CELL(abcABC):=T 1.889726e+02=T 90.00000=T Traj:=T positionsangstrom=T Step:=T 0=T Bead:=T pbc="F F F"
C      -47.52090000     -35.96990000     -72.00970000
C      -46.41320000     -36.41590000     -71.30130000
C      -46.38800000     -36.13820000     -69.91030000
C      -47.33850000     -35.23600000     -69.30770000
C      -48.47950000     -34.86860000     -70.05680000
C      -48.49760000     -35.15310000     -71.45460000
H      -47.53350000     -36.14090000     -73.05040000
H      -45.60280000     -36.49490000     -69.32410000
H      -49.26030000     -34.25920000     -69.59440000
H      -49.35090000     -34.85950000     -72.02580000
C      -47.18340000     -34.84100000     -67.87080000
H      -47.16460000     -35.62910000     -67.16090000
H      -48.02670000     -34.31520000     -67.51120000
C      -45.30010000     -37.25660000     -71.84400000
H      -45.20800000     -38.27260000     -71.40790000
H      -45.52270000     -37.48550000     -72.87780000
S      -45.73790000     -33.78350000     -67.53010000
S      -43.58480000     -36.45710000     -71.81400000
C      -45.73150000     -32.25850000     -68.60220000
H      -46.77380000     -32.15850000     -68.94320000
H      -45.40480000     -31.33530000     -68.16540000
C      -43.89340000     -34.86410000     -72.61140000
H      -44.85060000     -34.51370000     -72.32250000
H      -43.89540000     -35.01580000     -73.77130000
C      -42.79320000     -33.79850000     -72.19540000
H      -42.72630000     -33.85240000     -71.14620000
H      -41.80950000     -34.12770000     -72.46380000
C      -44.82550000     -32.53620000     -69.78750000
H      -44.91750000     -33.54150000     -70.20190000
H      -43.75960000     -32.43780000     -69.54140000
C      -45.02370000     -31.50830000     -70.92560000
C      -45.92810000     -30.51330000     -70.95190000
C      -44.27010000     -31.49410000     -72.17210000
H      -46.73640000     -30.38060000     -70.16110000
C      -44.73220000     -30.59550000     -73.11960000
C      -43.25890000     -32.45820000     -72.78470000
C      -43.00080000     -32.02840000     -74.09850000
S      -45.94540000     -29.49620000     -72.44540000
S      -43.90450000     -30.62600000     -74.58020000
H      -42.21770000     -32.52780000     -74.69780000
