40
Properties=species:S:1:pos:R:3 #=T CELL(abcABC):=T 1.889726e+02=T 90.00000=T Traj:=T positionsangstrom=T Step:=T 0=T Bead:=T pbc="F F F"
C      -43.35570000     -35.38540000     -71.88770000
C      -42.99560000     -33.98030000     -71.93410000
C      -43.26360000     -33.19800000     -70.82830000
C      -43.93300000     -33.64130000     -69.65820000
C      -44.29120000     -34.98560000     -69.69610000
C      -43.96720000     -35.87710000     -70.74480000
H      -43.13300000     -36.05290000     -72.68990000
H      -42.74300000     -32.25600000     -70.82740000
H      -44.65920000     -35.50610000     -68.74680000
H      -44.27680000     -36.93060000     -70.49830000
C      -44.19550000     -32.75780000     -68.47160000
H      -43.34050000     -32.96200000     -67.86170000
H      -45.06080000     -33.08080000     -67.94610000
C      -42.25200000     -33.54880000     -73.16730000
H      -41.33400000     -32.87810000     -73.00630000
H      -41.95930000     -34.38740000     -73.72210000
S      -44.30990000     -30.97550000     -69.01370000
S      -43.25610000     -32.71030000     -74.42340000
C      -46.13500000     -30.62830000     -69.02310000
H      -46.55910000     -31.04600000     -68.06810000
H      -46.31790000     -29.55190000     -68.96780000
C      -44.46920000     -31.53570000     -73.51820000
H      -44.41610000     -30.59340000     -74.10750000
H      -44.17410000     -31.22550000     -72.51880000
C      -45.96730000     -31.92380000     -73.60030000
H      -46.48110000     -31.06670000     -73.19110000
H      -46.31760000     -31.96160000     -74.66500000
C      -46.77350000     -31.06500000     -70.31570000
H      -46.03450000     -30.71750000     -71.03920000
H      -47.73250000     -30.52000000     -70.39720000
C      -47.11440000     -32.54050000     -70.45670000
C      -47.72770000     -33.17920000     -69.37340000
C      -46.88220000     -33.35440000     -71.57950000
H      -47.82270000     -32.73900000     -68.38110000
C      -47.20620000     -34.73540000     -71.28270000
C      -46.37690000     -33.16370000     -72.87580000
C      -46.20590000     -34.38400000     -73.53640000
S      -47.94750000     -34.87640000     -69.71060000
S      -46.85940000     -35.74140000     -72.65870000
H      -45.56250000     -34.42170000     -74.38590000
