40
Properties=species:S:1:pos:R:3 #=T CELL(abcABC):=T 1.889726e+02=T 90.00000=T Traj:=T positionsangstrom=T Step:=T 0=T Bead:=T pbc="F F F"
C      -43.45750000     -35.31210000     -71.93830000
C      -42.99060000     -34.03860000     -71.88300000
C      -43.18120000     -33.29730000     -70.73650000
C      -43.98770000     -33.65830000     -69.67030000
C      -44.52590000     -34.95140000     -69.71280000
C      -44.23740000     -35.73870000     -70.80080000
H      -43.18320000     -36.02970000     -72.67440000
H      -42.66640000     -32.33160000     -70.72890000
H      -45.20940000     -35.36990000     -68.91210000
H      -44.64420000     -36.79630000     -70.77220000
C      -44.14640000     -32.67840000     -68.39350000
H      -43.30210000     -32.66330000     -67.69140000
H      -45.06850000     -32.97900000     -67.83020000
C      -42.10110000     -33.52860000     -72.99660000
H      -41.39590000     -32.78560000     -72.68790000
H      -41.48620000     -34.40520000     -73.32000000
S      -44.35870000     -30.85530000     -68.86780000
S      -43.19760000     -32.76470000     -74.33220000
C      -46.17920000     -30.72520000     -68.88280000
H      -46.50900000     -31.38330000     -68.04320000
H      -46.36480000     -29.64130000     -68.80300000
C      -44.23110000     -31.59560000     -73.44150000
H      -43.96040000     -30.60390000     -73.80920000
H      -44.05520000     -31.71270000     -72.36610000
C      -45.77070000     -31.90680000     -73.56350000
H      -46.43780000     -31.13990000     -73.10840000
H      -46.02740000     -31.82520000     -74.63680000
C      -46.94110000     -31.05470000     -70.21900000
H      -46.42850000     -30.45770000     -70.99050000
H      -47.89530000     -30.55800000     -70.10010000
C      -47.11450000     -32.53140000     -70.50200000
C      -47.80300000     -33.26700000     -69.52050000
C      -46.90140000     -33.35820000     -71.69830000
H      -48.19030000     -32.90360000     -68.58960000
C      -47.16300000     -34.70680000     -71.38690000
C      -46.27880000     -33.18160000     -72.98090000
C      -46.14070000     -34.39350000     -73.65760000
S      -47.96090000     -34.92210000     -69.88200000
S      -46.82210000     -35.73920000     -72.75320000
H      -45.69780000     -34.54620000     -74.61580000
