40
Properties=species:S:1:pos:R:3 #=T CELL(abcABC):=T 1.889726e+02=T 90.00000=T Traj:=T positionsangstrom=T Step:=T 0=T Bead:=T pbc="F F F"
C      -43.50680000     -35.20160000     -71.85480000
C      -42.81250000     -33.94570000     -71.81740000
C      -43.05550000     -33.16640000     -70.67740000
C      -43.83910000     -33.54250000     -69.54000000
C      -44.53340000     -34.76280000     -69.66540000
C      -44.34130000     -35.60610000     -70.78370000
H      -43.38990000     -35.87750000     -72.74760000
H      -42.76260000     -32.13710000     -70.64750000
H      -45.25940000     -34.98950000     -68.93150000
H      -44.65710000     -36.65760000     -70.86540000
C      -44.21260000     -32.67410000     -68.32270000
H      -43.48560000     -32.60590000     -67.53860000
H      -45.10270000     -33.05830000     -67.80500000
C      -42.01950000     -33.45100000     -72.97610000
H      -41.43290000     -32.60270000     -72.67820000
H      -41.33900000     -34.29940000     -73.30300000
S      -44.51700000     -30.94550000     -68.81970000
S      -43.18430000     -32.91120000     -74.24230000
C      -46.28910000     -30.70780000     -69.07190000
H      -46.83680000     -31.09400000     -68.24010000
H      -46.44070000     -29.59410000     -68.98180000
C      -44.14130000     -31.60540000     -73.32000000
H      -43.83860000     -30.62870000     -73.67800000
H      -43.69150000     -31.62010000     -72.30250000
C      -45.66540000     -31.87230000     -73.49100000
H      -46.24220000     -31.05380000     -73.12010000
H      -45.80810000     -31.90550000     -74.54440000
C      -46.80160000     -31.23110000     -70.37700000
H      -46.08860000     -30.97260000     -71.17810000
H      -47.72390000     -30.74200000     -70.80880000
C      -47.08270000     -32.64230000     -70.45950000
C      -47.80130000     -33.32080000     -69.48750000
C      -46.79970000     -33.39700000     -71.68210000
H      -48.26940000     -32.93780000     -68.59640000
C      -47.21530000     -34.68590000     -71.48890000
C      -46.18930000     -33.13830000     -72.96000000
C      -46.15870000     -34.31520000     -73.70810000
S      -48.04660000     -35.02730000     -70.00640000
S      -46.85670000     -35.67210000     -72.84670000
H      -45.89220000     -34.45580000     -74.76620000
