40
Properties=species:S:1:pos:R:3 #=T CELL(abcABC):=T 1.889726e+02=T 90.00000=T Traj:=T positionsangstrom=T Step:=T 0=T Bead:=T pbc="F F F"
C      -43.09860000     -35.22760000     -71.24440000
C      -42.67080000     -33.91690000     -71.28670000
C      -43.07510000     -33.07140000     -70.23420000
C      -43.79780000     -33.53210000     -69.11010000
C      -44.20260000     -34.90690000     -69.11130000
C      -43.89780000     -35.71820000     -70.24230000
H      -42.93820000     -35.85200000     -72.15890000
H      -42.57510000     -32.08290000     -70.21510000
H      -44.89490000     -35.30260000     -68.34330000
H      -44.27590000     -36.70120000     -70.22730000
C      -44.48340000     -32.62100000     -68.10610000
H      -43.89360000     -32.55620000     -67.13510000
H      -45.45960000     -33.04440000     -67.94060000
C      -41.89510000     -33.26750000     -72.43960000
H      -41.53690000     -32.33750000     -72.01800000
H      -41.03580000     -33.92140000     -72.78190000
S      -44.68070000     -30.84820000     -68.55740000
S      -42.90910000     -32.88970000     -73.97970000
C      -46.44320000     -30.56160000     -69.31840000
H      -47.18120000     -30.89540000     -68.55940000
H      -46.56990000     -29.38440000     -69.29680000
C      -44.15180000     -31.79760000     -73.28490000
H      -43.78640000     -30.82470000     -73.57290000
H      -44.04760000     -31.77700000     -72.19920000
C      -45.63020000     -32.01050000     -73.69370000
H      -46.10340000     -31.12380000     -73.26230000
H      -45.77420000     -31.74190000     -74.74650000
C      -46.66340000     -31.21240000     -70.72810000
H      -45.75190000     -31.13360000     -71.28870000
H      -47.37850000     -30.54000000     -71.28570000
C      -47.12180000     -32.64920000     -70.84900000
C      -47.60910000     -33.34360000     -69.76300000
C      -46.92100000     -33.44500000     -72.05570000
H      -47.99310000     -32.86710000     -68.89120000
C      -47.42170000     -34.73870000     -71.92560000
C      -46.26330000     -33.32100000     -73.31970000
C      -46.56600000     -34.26670000     -74.26960000
S      -48.05500000     -35.05940000     -70.30940000
S      -47.18780000     -35.66080000     -73.37910000
H      -46.39120000     -34.19410000     -75.28830000
