40
Properties=species:S:1:pos:R:3 #=T CELL(abcABC):=T 1.889726e+02=T 90.00000=T Traj:=T positionsangstrom=T Step:=T 0=T Bead:=T pbc="F F F"
C      -47.00540000     -35.47620000     -71.91380000
C      -47.90300000     -34.31880000     -71.96370000
C      -47.54360000     -33.25460000     -72.84530000
C      -46.37520000     -33.31020000     -73.59790000
C      -45.57920000     -34.47990000     -73.57900000
C      -45.93440000     -35.61430000     -72.77590000
H      -47.11210000     -36.33440000     -71.23000000
H      -48.04500000     -32.35660000     -72.66830000
H      -44.68150000     -34.50100000     -74.28750000
H      -45.33720000     -36.45010000     -72.51770000
C      -46.03250000     -32.14680000     -74.46830000
H      -46.85520000     -31.44740000     -74.60810000
H      -45.57100000     -32.36730000     -75.39970000
C      -49.10670000     -34.12430000     -71.07470000
H      -49.72380000     -33.25800000     -71.35820000
H      -49.69900000     -35.06430000     -71.08280000
S      -44.67280000     -31.05320000     -73.71820000
S      -48.38540000     -33.97480000     -69.36580000
C      -45.20900000     -30.54990000     -71.95800000
H      -45.80240000     -29.59810000     -71.87000000
H      -45.90040000     -31.34650000     -71.56810000
C      -47.44920000     -32.44730000     -69.52640000
H      -48.00490000     -31.58170000     -69.11870000
H      -47.31260000     -32.30390000     -70.59110000
C      -46.12470000     -32.45320000     -68.75990000
H      -45.65800000     -31.40850000     -68.82350000
H      -46.26150000     -32.71970000     -67.73120000
C      -43.92510000     -30.63050000     -71.17820000
H      -44.03070000     -30.09170000     -70.22170000
H      -43.24930000     -30.01970000     -71.83830000
C      -43.37050000     -32.02800000     -71.01720000
C      -42.31520000     -32.35520000     -71.80280000
C      -43.94060000     -33.15110000     -70.24600000
H      -41.81020000     -31.58300000     -72.38700000
C      -43.19400000     -34.31410000     -70.54410000
C      -45.04700000     -33.43360000     -69.42840000
C      -45.09850000     -34.73670000     -69.04280000
S      -41.77750000     -33.97830000     -71.45300000
S      -43.80060000     -35.70120000     -69.70700000
H      -45.91530000     -35.24470000     -68.46380000
