40
Properties=species:S:1:pos:R:3 #=T CELL(abcABC):=T 1.889726e+02=T 90.00000=T Traj:=T positionsangstrom=T Step:=T 0=T Bead:=T pbc="F F F"
C      -47.44260000     -35.79130000     -72.00550000
C      -46.47810000     -36.45320000     -71.26550000
C      -46.24370000     -36.11600000     -69.91350000
C      -47.15530000     -35.24910000     -69.27870000
C      -48.23140000     -34.75020000     -70.00940000
C      -48.41680000     -35.09970000     -71.33230000
H      -47.72970000     -35.97890000     -73.04660000
H      -45.33990000     -36.47150000     -69.40200000
H      -49.00490000     -34.29080000     -69.42300000
H      -49.28400000     -34.69430000     -71.81690000
C      -47.08730000     -34.82740000     -67.82440000
H      -47.04090000     -35.74750000     -67.18630000
H      -48.02540000     -34.18790000     -67.66540000
C      -45.37840000     -37.23130000     -71.97910000
H      -45.28770000     -38.18770000     -71.53090000
H      -45.75600000     -37.41670000     -73.01030000
S      -45.59550000     -33.79450000     -67.39210000
S      -43.74430000     -36.41940000     -71.99760000
C      -45.83750000     -32.39680000     -68.61990000
H      -46.85360000     -32.48760000     -68.91360000
H      -45.85280000     -31.38150000     -68.08620000
C      -44.09960000     -34.63670000     -72.53010000
H      -45.05500000     -34.36760000     -71.98410000
H      -44.14850000     -34.60190000     -73.59090000
C      -42.93770000     -33.78180000     -72.06260000
H      -42.77440000     -33.84140000     -70.90730000
H      -42.01610000     -34.15600000     -72.59250000
C      -44.89920000     -32.45120000     -69.79220000
H      -44.79950000     -33.47160000     -70.16700000
H      -43.92100000     -32.15220000     -69.37360000
C      -45.09390000     -31.50890000     -70.99430000
C      -46.04830000     -30.54660000     -71.05830000
C      -44.41360000     -31.59000000     -72.19400000
H      -46.70230000     -30.24920000     -70.26890000
C      -44.72260000     -30.63450000     -73.16700000
C      -43.20950000     -32.36940000     -72.61320000
C      -42.84830000     -32.06470000     -73.94190000
S      -46.08940000     -29.65740000     -72.60100000
S      -43.72350000     -30.68170000     -74.56650000
H      -42.21660000     -32.80060000     -74.46880000
