40
Properties=species:S:1:pos:R:3 #=T CELL(abcABC):=T 1.889726e+02=T 90.00000=T Traj:=T positionsangstrom=T Step:=T 0=T Bead:=T pbc="F F F"
C      -43.61000000     -35.39560000     -70.94260000
C      -43.12810000     -34.05540000     -71.00910000
C      -43.63520000     -33.12060000     -70.04400000
C      -44.51720000     -33.53000000     -69.05550000
C      -45.01120000     -34.82720000     -69.07130000
C      -44.47210000     -35.76480000     -69.91030000
H      -43.14640000     -36.21730000     -71.52320000
H      -43.17920000     -32.13190000     -70.07300000
H      -45.52530000     -35.34010000     -68.27770000
H      -44.78240000     -36.80320000     -69.77080000
C      -44.95430000     -32.57710000     -67.94960000
H      -44.34450000     -32.65130000     -67.03280000
H      -45.96610000     -32.84670000     -67.53240000
C      -42.13160000     -33.61880000     -71.99520000
H      -41.53200000     -32.74270000     -71.63770000
H      -41.48100000     -34.44150000     -72.30640000
S      -44.87750000     -30.85680000     -68.41940000
S      -42.81440000     -33.09170000     -73.61320000
C      -46.47230000     -30.56080000     -69.26690000
H      -47.27090000     -30.97910000     -68.61280000
H      -46.75210000     -29.49990000     -69.49580000
C      -43.88590000     -31.62110000     -73.32950000
H      -43.29730000     -30.70830000     -73.69230000
H      -44.09040000     -31.56780000     -72.27070000
C      -45.30690000     -31.70100000     -73.92770000
H      -45.79580000     -30.79850000     -73.34690000
H      -45.37440000     -31.45150000     -74.99770000
C      -46.51770000     -31.22600000     -70.76960000
H      -45.44290000     -31.05110000     -71.07460000
H      -47.05980000     -30.52060000     -71.45600000
C      -46.91120000     -32.65230000     -70.99310000
C      -47.66140000     -33.40660000     -70.14810000
C      -46.52530000     -33.36250000     -72.18640000
H      -48.04520000     -33.02920000     -69.21090000
C      -46.83080000     -34.72880000     -72.12840000
C      -45.95940000     -33.03170000     -73.49450000
C      -46.01810000     -34.09370000     -74.32050000
S      -47.71280000     -35.05780000     -70.70280000
S      -46.77240000     -35.56320000     -73.70250000
H      -45.86570000     -33.92780000     -75.38790000
