40
Properties=species:S:1:pos:R:3 #=T CELL(abcABC):=T 1.889726e+02=T 90.00000=T Traj:=T positionsangstrom=T Step:=T 0=T Bead:=T pbc="F F F"
C      -46.89300000     -35.45260000     -71.99760000
C      -47.79880000     -34.31780000     -71.99850000
C      -47.36950000     -33.34080000     -72.91490000
C      -46.25720000     -33.40110000     -73.70190000
C      -45.44810000     -34.54200000     -73.69760000
C      -45.82010000     -35.60800000     -72.84720000
H      -46.98360000     -36.12320000     -71.14330000
H      -47.94920000     -32.40920000     -72.95140000
H      -44.63130000     -34.58230000     -74.39290000
H      -45.27150000     -36.56620000     -72.87860000
C      -45.89010000     -32.26660000     -74.59680000
H      -46.77800000     -31.61320000     -74.69490000
H      -45.60210000     -32.43410000     -75.66410000
C      -48.83430000     -34.14770000     -71.04290000
H      -49.42170000     -33.28410000     -71.43820000
H      -49.32510000     -35.15840000     -70.96630000
S      -44.44970000     -31.29900000     -73.93330000
S      -48.39790000     -33.74980000     -69.28710000
C      -45.16270000     -30.69760000     -72.29530000
H      -45.50900000     -29.62720000     -72.36850000
H      -46.10240000     -31.24220000     -72.11510000
C      -47.48570000     -32.09240000     -69.40230000
H      -48.19420000     -31.39970000     -68.91090000
H      -47.43010000     -31.96390000     -70.48400000
C      -46.10040000     -32.19110000     -68.78550000
H      -45.69250000     -31.25560000     -68.76930000
H      -46.24950000     -32.54740000     -67.73460000
C      -44.12260000     -30.74230000     -71.17930000
H      -44.33820000     -30.42110000     -70.14460000
H      -43.30050000     -30.08280000     -71.43570000
C      -43.52230000     -32.12190000     -71.09550000
C      -42.21700000     -32.40310000     -71.57960000
C      -44.10890000     -33.19400000     -70.34330000
H      -41.82170000     -31.75510000     -72.26810000
C      -43.35810000     -34.32150000     -70.45090000
C      -45.27790000     -33.26090000     -69.41660000
C      -45.26600000     -34.54130000     -68.90940000
S      -41.88450000     -34.15290000     -71.36420000
S      -44.00290000     -35.58780000     -69.43970000
H      -45.86450000     -34.77200000     -68.05140000
