40
Properties=species:S:1:pos:R:3 #=T CELL(abcABC):=T 1.889726e+02=T 90.00000=T Traj:=T positionsangstrom=T Step:=T 0=T Bead:=T pbc="F F F"
C      -43.36900000     -35.17040000     -70.68520000
C      -42.81480000     -33.88480000     -70.32550000
C      -43.49750000     -33.08990000     -69.41470000
C      -44.70380000     -33.62820000     -68.78800000
C      -45.28540000     -34.80720000     -69.22290000
C      -44.54210000     -35.61330000     -70.11160000
H      -42.86480000     -35.80680000     -71.44260000
H      -43.15490000     -32.03810000     -69.15370000
H      -46.23660000     -35.13750000     -68.80420000
H      -44.86130000     -36.56120000     -70.54570000
C      -45.49480000     -32.82900000     -67.79630000
H      -45.08450000     -32.88430000     -66.80110000
H      -46.39550000     -33.36140000     -67.66300000
C      -41.60790000     -33.25540000     -71.03580000
H      -41.27360000     -32.43530000     -70.35260000
H      -40.78520000     -33.90230000     -71.18860000
S      -45.87710000     -31.08410000     -68.34700000
S      -42.16800000     -32.69680000     -72.74680000
C      -47.25990000     -31.07410000     -69.50710000
H      -48.08950000     -31.65830000     -69.05380000
H      -47.52600000     -30.06820000     -69.38040000
C      -43.48870000     -31.48650000     -72.55860000
H      -43.22430000     -30.42280000     -72.77270000
H      -43.82090000     -31.61530000     -71.54930000
C      -44.68910000     -31.78950000     -73.46990000
H      -45.50750000     -31.14920000     -73.16960000
H      -44.44220000     -31.68590000     -74.56740000
C      -46.87420000     -31.42420000     -70.97010000
H      -45.79280000     -31.34920000     -71.06250000
H      -47.19070000     -30.65700000     -71.69110000
C      -47.31260000     -32.71160000     -71.49390000
C      -48.41590000     -33.47550000     -71.26900000
C      -46.47320000     -33.40300000     -72.45480000
H      -49.36500000     -33.05860000     -70.74280000
C      -46.90100000     -34.69930000     -72.70840000
C      -45.27320000     -33.16630000     -73.25850000
C      -44.90980000     -34.16940000     -74.08900000
S      -48.51440000     -34.96510000     -72.16120000
S      -45.83360000     -35.63330000     -73.79390000
H      -44.03610000     -34.16550000     -74.80180000
