40
Properties=species:S:1:pos:R:3 #=T CELL(abcABC):=T 1.889726e+02=T 90.00000=T Traj:=T positionsangstrom=T Step:=T 0=T Bead:=T pbc="F F F"
C      -43.46660000     -35.05810000     -70.59650000
C      -43.07670000     -33.80270000     -70.14070000
C      -44.02060000     -32.96980000     -69.42910000
C      -45.23930000     -33.58410000     -69.00520000
C      -45.54530000     -34.93260000     -69.43930000
C      -44.70540000     -35.63910000     -70.23740000
H      -42.88790000     -35.63800000     -71.26550000
H      -43.79700000     -31.87660000     -69.35680000
H      -46.53770000     -35.30680000     -69.12490000
H      -45.07020000     -36.55480000     -70.69370000
C      -46.30660000     -32.92130000     -68.16940000
H      -46.20800000     -32.96090000     -67.10420000
H      -47.33240000     -33.25760000     -68.41810000
C      -41.83220000     -33.15400000     -70.57780000
H      -41.64220000     -32.23640000     -70.01320000
H      -40.96180000     -33.82350000     -70.28640000
S      -46.34110000     -31.09670000     -68.41540000
S      -41.79690000     -32.80380000     -72.38890000
C      -47.23390000     -30.65770000     -69.94950000
H      -48.25130000     -31.08600000     -69.79640000
H      -47.32150000     -29.55570000     -69.87790000
C      -43.26690000     -31.75820000     -72.53980000
H      -42.85250000     -30.79630000     -72.61210000
H      -43.76900000     -31.94620000     -71.62620000
C      -44.20260000     -31.99300000     -73.67740000
H      -44.88380000     -31.12960000     -73.91200000
H      -43.66890000     -32.12180000     -74.64630000
C      -46.54720000     -31.22490000     -71.31120000
H      -45.48490000     -30.99920000     -71.28720000
H      -46.89540000     -30.60630000     -72.15490000
C      -46.81340000     -32.67120000     -71.53970000
C      -47.90890000     -33.33950000     -70.96950000
C      -46.17110000     -33.46530000     -72.54470000
H      -48.61330000     -32.98380000     -70.22200000
C      -46.80880000     -34.66510000     -72.68980000
C      -45.08160000     -33.26800000     -73.47250000
C      -44.91820000     -34.29350000     -74.37340000
S      -48.04320000     -35.00410000     -71.54160000
S      -46.10510000     -35.60290000     -74.05650000
H      -44.10690000     -34.32630000     -74.99240000
