40
Properties=species:S:1:pos:R:3 #=T CELL(abcABC):=T 1.889726e+02=T 90.00000=T Traj:=T positionsangstrom=T Step:=T 0=T Bead:=T pbc="F F F"
C      -43.35800000     -35.37790000     -69.91070000
C      -43.13610000     -33.97330000     -69.97660000
C      -44.09780000     -33.12650000     -69.34010000
C      -45.35610000     -33.60190000     -68.93770000
C      -45.58290000     -34.99810000     -68.99250000
C      -44.56210000     -35.87650000     -69.42770000
H      -42.57390000     -36.07650000     -70.33060000
H      -43.96440000     -32.06020000     -69.21630000
H      -46.55520000     -35.32580000     -68.58700000
H      -44.62930000     -36.95910000     -69.33880000
C      -46.38520000     -32.73930000     -68.39600000
H      -46.33450000     -32.87200000     -67.31060000
H      -47.39580000     -33.02050000     -68.67460000
C      -41.84820000     -33.49460000     -70.55670000
H      -41.42250000     -32.57290000     -70.08630000
H      -41.13370000     -34.28550000     -70.49510000
S      -46.19080000     -30.90550000     -68.53690000
S      -41.96210000     -33.16100000     -72.38090000
C      -47.31470000     -30.57960000     -69.97600000
H      -48.39260000     -30.90550000     -69.89780000
H      -47.40850000     -29.49720000     -70.02640000
C      -43.17240000     -31.63660000     -72.43800000
H      -42.52970000     -30.74930000     -72.66160000
H      -43.49500000     -31.44130000     -71.40270000
C      -44.16860000     -31.86160000     -73.55990000
H      -44.91040000     -31.06240000     -73.41260000
H      -43.69430000     -31.75930000     -74.58340000
C      -46.62230000     -31.04760000     -71.29090000
H      -45.54510000     -30.91290000     -71.24980000
H      -46.99410000     -30.38880000     -72.11730000
C      -46.89910000     -32.49980000     -71.79370000
C      -48.08290000     -33.15070000     -71.43550000
C      -46.13840000     -33.36520000     -72.65410000
H      -48.88010000     -32.80390000     -70.71680000
C      -46.74250000     -34.62550000     -72.84880000
C      -44.94990000     -33.21020000     -73.45840000
C      -44.63630000     -34.30500000     -74.22990000
S      -48.28700000     -34.77550000     -72.09550000
S      -45.89780000     -35.64330000     -73.99950000
H      -43.88050000     -34.36380000     -75.02400000
