40
Properties=species:S:1:pos:R:3 #=T CELL(abcABC):=T 1.889726e+02=T 90.00000=T Traj:=T positionsangstrom=T Step:=T 0=T Bead:=T pbc="F F F"
C      -43.66390000     -35.46020000     -69.67230000
C      -43.31840000     -34.11410000     -69.80140000
C      -44.20760000     -33.13580000     -69.38700000
C      -45.41840000     -33.47180000     -68.79120000
C      -45.71620000     -34.82230000     -68.54320000
C      -44.85990000     -35.75490000     -69.00870000
H      -42.88570000     -36.26460000     -69.80240000
H      -43.88610000     -32.07330000     -69.38510000
H      -46.55000000     -35.03480000     -67.95170000
H      -45.14610000     -36.80110000     -68.88490000
C      -46.36890000     -32.37790000     -68.42610000
H      -46.47260000     -32.39280000     -67.32130000
H      -47.31850000     -32.61290000     -68.80770000
C      -41.96360000     -33.74980000     -70.44620000
H      -41.52690000     -32.79090000     -70.15180000
H      -41.20940000     -34.52790000     -70.22990000
S      -45.94470000     -30.62680000     -68.87820000
S      -42.06650000     -33.55720000     -72.27540000
C      -46.98300000     -30.30760000     -70.35370000
H      -48.00270000     -30.60960000     -70.17070000
H      -47.00210000     -29.20520000     -70.57990000
C      -43.06700000     -31.98610000     -72.49930000
H      -42.42420000     -31.06230000     -72.60690000
H      -43.65250000     -32.05170000     -71.53210000
C      -44.06690000     -32.07100000     -73.65900000
H      -44.61890000     -31.21170000     -73.82260000
H      -43.52110000     -32.20690000     -74.58910000
C      -46.48650000     -31.00590000     -71.61480000
H      -45.40420000     -30.74000000     -71.78510000
H      -46.96570000     -30.54450000     -72.49300000
C      -46.81640000     -32.46170000     -71.85140000
C      -48.02860000     -33.02420000     -71.42780000
C      -46.14830000     -33.36990000     -72.72230000
H      -48.69610000     -32.66250000     -70.66140000
C      -46.81730000     -34.61270000     -72.88790000
C      -44.96650000     -33.24540000     -73.54310000
C      -44.68840000     -34.40620000     -74.24200000
S      -48.24560000     -34.68410000     -71.99000000
S      -45.89970000     -35.64190000     -73.97640000
H      -43.88190000     -34.58190000     -75.06400000
