40
Properties=species:S:1:pos:R:3 #=T CELL(abcABC):=T 1.889726e+02=T 90.00000=T Traj:=T positionsangstrom=T Step:=T 0=T Bead:=T pbc="F F F"
C      -47.41480000     -35.59090000     -71.87080000
C      -46.37720000     -36.26450000     -71.19200000
C      -46.20380000     -36.02880000     -69.84360000
C      -47.06280000     -35.13570000     -69.17240000
C      -48.15410000     -34.58840000     -69.81780000
C      -48.27180000     -34.81840000     -71.16730000
H      -47.62790000     -35.54270000     -72.93630000
H      -45.39270000     -36.58920000     -69.32660000
H      -49.00280000     -34.11080000     -69.32950000
H      -49.23340000     -34.44840000     -71.55130000
C      -46.76750000     -34.96380000     -67.72200000
H      -46.44240000     -35.87240000     -67.14170000
H      -47.69680000     -34.76160000     -67.07950000
C      -45.43640000     -37.13910000     -72.03860000
H      -45.39660000     -38.21380000     -71.78210000
H      -45.73280000     -37.05450000     -73.07040000
S      -45.68950000     -33.49420000     -67.27080000
S      -43.74060000     -36.50440000     -71.90570000
C      -45.92800000     -32.39070000     -68.71560000
H      -47.02310000     -32.22770000     -68.96560000
H      -45.62050000     -31.43930000     -68.39170000
C      -43.77200000     -34.91230000     -72.97310000
H      -44.76730000     -34.57890000     -72.87370000
H      -43.36090000     -35.07270000     -74.02940000
C      -42.89110000     -33.87680000     -72.29690000
H      -42.98040000     -33.94360000     -71.19210000
H      -41.82700000     -34.05010000     -72.60610000
C      -45.13980000     -32.77300000     -70.01190000
H      -45.26580000     -33.84700000     -70.24020000
H      -44.03870000     -32.76840000     -69.83950000
C      -45.43430000     -31.90090000     -71.19940000
C      -46.36590000     -30.88160000     -71.18780000
C      -44.47240000     -31.82970000     -72.35000000
H      -47.07850000     -30.59070000     -70.41280000
C      -44.81100000     -30.67600000     -73.09870000
C      -43.29370000     -32.52380000     -72.83550000
C      -42.73040000     -31.89370000     -73.89860000
S      -46.19050000     -29.82680000     -72.62690000
S      -43.58620000     -30.45030000     -74.39550000
H      -41.80220000     -31.98120000     -74.40950000
