40
Properties=species:S:1:pos:R:3 #=T CELL(abcABC):=T 1.889726e+02=T 90.00000=T Traj:=T positionsangstrom=T Step:=T 0=T Bead:=T pbc="F F F"
C      -44.13550000     -35.27270000     -70.13960000
C      -43.46800000     -34.08710000     -69.82820000
C      -44.10160000     -33.03470000     -69.18210000
C      -45.44030000     -33.18210000     -68.83530000
C      -46.10720000     -34.33600000     -69.24270000
C      -45.50120000     -35.41200000     -69.91240000
H      -43.52040000     -36.09560000     -70.56790000
H      -43.57510000     -32.13720000     -68.96080000
H      -47.14860000     -34.34320000     -69.15050000
H      -46.02230000     -36.33360000     -70.17740000
C      -46.18240000     -32.12610000     -68.06850000
H      -45.65570000     -31.97720000     -67.05960000
H      -47.21570000     -32.35250000     -67.89300000
C      -42.02500000     -33.94060000     -70.29430000
H      -41.37880000     -33.13720000     -69.91340000
H      -41.45080000     -34.87290000     -70.14820000
S      -46.03490000     -30.45200000     -68.82070000
S      -41.94190000     -33.81600000     -72.18360000
C      -46.99890000     -30.40340000     -70.35170000
H      -48.01050000     -30.84570000     -70.12270000
H      -47.12510000     -29.32360000     -70.36870000
C      -42.76280000     -32.16720000     -72.47970000
H      -42.01250000     -31.55470000     -72.79920000
H      -43.19870000     -31.74130000     -71.55460000
C      -43.82480000     -32.22630000     -73.64370000
H      -44.37590000     -31.26840000     -73.52060000
H      -43.29130000     -32.16060000     -74.63520000
C      -46.23810000     -31.08190000     -71.46940000
H      -45.19700000     -31.18120000     -71.24750000
H      -46.19740000     -30.43920000     -72.35910000
C      -46.76540000     -32.47580000     -71.85500000
C      -47.90590000     -33.05100000     -71.28930000
C      -46.13010000     -33.41140000     -72.74320000
H      -48.70800000     -32.55410000     -70.72670000
C      -46.72240000     -34.65430000     -72.81580000
C      -44.85760000     -33.35100000     -73.55180000
C      -44.61930000     -34.57430000     -74.19750000
S      -48.17870000     -34.73210000     -71.82010000
S      -45.96340000     -35.74040000     -73.90330000
H      -43.88510000     -34.74670000     -74.92820000
