40
Properties=species:S:1:pos:R:3 #=T CELL(abcABC):=T 1.889726e+02=T 90.00000=T Traj:=T positionsangstrom=T Step:=T 0=T Bead:=T pbc="F F F"
C      -44.22200000     -35.43690000     -70.17050000
C      -43.54980000     -34.19080000     -70.04750000
C      -44.12060000     -33.18040000     -69.28540000
C      -45.40540000     -33.33770000     -68.77540000
C      -46.07740000     -34.53960000     -69.00000000
C      -45.52420000     -35.57030000     -69.73830000
H      -43.72650000     -36.18910000     -70.82220000
H      -43.58310000     -32.22000000     -69.11460000
H      -47.09550000     -34.75550000     -68.52720000
H      -46.03150000     -36.50540000     -69.89120000
C      -46.03760000     -32.20020000     -67.90920000
H      -45.53250000     -32.06900000     -66.92880000
H      -47.10130000     -32.45760000     -67.76060000
C      -42.05830000     -34.10530000     -70.45040000
H      -41.53960000     -33.46600000     -69.71620000
H      -41.71940000     -35.16770000     -70.42830000
S      -45.78520000     -30.58300000     -68.73430000
S      -41.68690000     -33.37880000     -72.12290000
C      -46.93320000     -30.60270000     -70.22040000
H      -47.88840000     -31.09690000     -69.93600000
H      -47.27290000     -29.57270000     -70.30130000
C      -42.85480000     -31.96990000     -72.38750000
H      -42.24200000     -31.06220000     -72.61550000
H      -43.26880000     -31.80350000     -71.45900000
C      -43.91510000     -32.18070000     -73.51840000
H      -44.57060000     -31.28620000     -73.57550000
H      -43.41150000     -32.23840000     -74.50640000
C      -46.31780000     -31.17070000     -71.53850000
H      -45.22530000     -31.19370000     -71.44290000
H      -46.44870000     -30.45280000     -72.32040000
C      -46.85220000     -32.49450000     -71.94350000
C      -48.11640000     -32.92230000     -71.62450000
C      -46.13590000     -33.40510000     -72.76080000
H      -48.81820000     -32.47240000     -70.97480000
C      -46.89060000     -34.56300000     -72.99930000
C      -44.81210000     -33.42280000     -73.35820000
C      -44.59290000     -34.64850000     -73.94980000
S      -48.45670000     -34.52870000     -72.27240000
S      -45.91500000     -35.76010000     -73.72250000
H      -43.73370000     -34.89950000     -74.50660000
