40
Properties=species:S:1:pos:R:3 #=T CELL(abcABC):=T 1.889726e+02=T 90.00000=T Traj:=T positionsangstrom=T Step:=T 0=T Bead:=T pbc="F F F"
C      -43.98190000     -35.47250000     -70.30780000
C      -43.30140000     -34.27290000     -69.97590000
C      -44.01260000     -33.29390000     -69.23540000
C      -45.35660000     -33.43620000     -68.88250000
C      -45.95750000     -34.67840000     -69.12110000
C      -45.31380000     -35.64030000     -69.88870000
H      -43.53690000     -36.36500000     -70.64290000
H      -43.50200000     -32.41030000     -68.93580000
H      -47.04880000     -34.69930000     -68.96860000
H      -45.76210000     -36.64710000     -70.03840000
C      -46.06210000     -32.34550000     -68.14390000
H      -45.79720000     -32.30240000     -67.07260000
H      -47.13580000     -32.42380000     -68.22960000
C      -41.95540000     -34.09350000     -70.46630000
H      -41.34730000     -33.54930000     -69.70230000
H      -41.54030000     -35.09100000     -70.67510000
S      -45.82830000     -30.55280000     -68.81200000
S      -41.69160000     -33.27330000     -72.08060000
C      -47.08820000     -30.45960000     -70.19440000
H      -48.00640000     -31.02770000     -69.82280000
H      -47.28890000     -29.43360000     -70.19570000
C      -43.07230000     -31.95000000     -72.18600000
H      -42.54890000     -30.98330000     -72.27550000
H      -43.58360000     -32.09320000     -71.22250000
C      -44.00190000     -32.17670000     -73.39890000
H      -44.68740000     -31.30500000     -73.65270000
H      -43.31060000     -32.31470000     -74.21390000
C      -46.59900000     -31.01460000     -71.56650000
H      -45.47990000     -30.96400000     -71.58610000
H      -46.84830000     -30.34740000     -72.42850000
C      -46.98950000     -32.43870000     -71.95380000
C      -48.25020000     -32.87920000     -71.80000000
C      -46.13170000     -33.38480000     -72.66550000
H      -49.09590000     -32.41200000     -71.33620000
C      -46.79620000     -34.60100000     -72.81000000
C      -44.81620000     -33.43490000     -73.19740000
C      -44.49740000     -34.66510000     -73.73590000
S      -48.49020000     -34.52670000     -72.28990000
S      -45.89030000     -35.77920000     -73.70600000
H      -43.66100000     -34.77730000     -74.42990000
