40
Properties=species:S:1:pos:R:3 #=T CELL(abcABC):=T 1.889726e+02=T 90.00000=T Traj:=T positionsangstrom=T Step:=T 0=T Bead:=T pbc="F F F"
C      -43.80570000     -35.45380000     -70.26160000
C      -43.15890000     -34.27630000     -69.90080000
C      -43.88690000     -33.29770000     -69.18470000
C      -45.27060000     -33.50510000     -69.00970000
C      -45.92840000     -34.62870000     -69.50180000
C      -45.16130000     -35.65060000     -70.05740000
H      -43.35600000     -36.16360000     -70.93630000
H      -43.50810000     -32.30380000     -68.97590000
H      -46.95890000     -34.77430000     -69.26270000
H      -45.53850000     -36.58570000     -70.46740000
C      -46.08510000     -32.42190000     -68.29930000
H      -45.74520000     -32.38990000     -67.23020000
H      -47.14190000     -32.60030000     -68.09210000
C      -41.73180000     -33.93210000     -70.24670000
H      -41.37780000     -33.18590000     -69.53850000
H      -41.04010000     -34.70490000     -70.15840000
S      -45.91220000     -30.76210000     -69.01050000
S      -41.72720000     -33.32680000     -72.00710000
C      -47.24780000     -30.52060000     -70.21540000
H      -48.14140000     -31.08060000     -69.96190000
H      -47.40430000     -29.40110000     -70.26520000
C      -43.00890000     -31.96710000     -72.07850000
H      -42.62910000     -30.95030000     -72.03500000
H      -43.63720000     -32.07760000     -71.14320000
C      -43.95050000     -32.10550000     -73.27060000
H      -44.45470000     -31.15350000     -73.31200000
H      -43.33770000     -32.17300000     -74.21420000
C      -46.80920000     -30.90340000     -71.63460000
H      -45.76430000     -30.84970000     -71.64740000
H      -47.22070000     -30.18570000     -72.37740000
C      -47.20330000     -32.32940000     -72.01690000
C      -48.36320000     -32.90530000     -71.67650000
C      -46.24800000     -33.29870000     -72.64810000
H      -49.19640000     -32.46740000     -71.12560000
C      -46.77820000     -34.57930000     -72.73750000
C      -44.94070000     -33.26800000     -73.33100000
C      -44.55700000     -34.54030000     -73.75210000
S      -48.49900000     -34.60500000     -72.26880000
S      -45.78720000     -35.72370000     -73.51480000
H      -43.50490000     -34.80300000     -73.96900000
