40
Properties=species:S:1:pos:R:3 #=T CELL(abcABC):=T 1.889726e+02=T 90.00000=T Traj:=T positionsangstrom=T Step:=T 0=T Bead:=T pbc="F F F"
C      -47.49040000     -35.55740000     -71.76730000
C      -46.42490000     -36.29360000     -71.22630000
C      -46.26710000     -36.20070000     -69.81520000
C      -47.02690000     -35.28350000     -69.03050000
C      -48.14940000     -34.64810000     -69.63070000
C      -48.30090000     -34.79420000     -70.99710000
H      -47.76710000     -35.61540000     -72.81630000
H      -45.46400000     -36.75150000     -69.33190000
H      -48.74910000     -33.83520000     -69.15520000
H      -49.07540000     -34.17440000     -71.46850000
C      -46.81990000     -35.00440000     -67.59720000
H      -46.15530000     -35.78210000     -67.29420000
H      -47.72520000     -34.81430000     -67.13410000
C      -45.38360000     -37.15140000     -71.96440000
H      -45.26240000     -38.14860000     -71.43780000
H      -45.81510000     -37.39620000     -72.91190000
S      -45.79170000     -33.42500000     -67.37640000
S      -43.62900000     -36.50020000     -71.86930000
C      -46.03980000     -32.41020000     -68.89610000
H      -47.13290000     -32.28080000     -69.05100000
H      -45.61420000     -31.48180000     -68.53020000
C      -43.60930000     -35.04510000     -72.95050000
H      -44.68480000     -34.81350000     -73.10200000
H      -43.23680000     -35.16640000     -73.99030000
C      -42.81490000     -33.80080000     -72.36850000
H      -42.93110000     -33.81940000     -71.29670000
H      -41.71170000     -33.86260000     -72.63070000
C      -45.29260000     -32.91430000     -70.18190000
H      -45.75550000     -33.82320000     -70.50520000
H      -44.28340000     -33.10710000     -69.86140000
C      -45.42560000     -31.88210000     -71.25380000
C      -46.38070000     -30.90370000     -71.25980000
C      -44.44320000     -31.80210000     -72.34290000
H      -47.37000000     -30.87770000     -70.76310000
C      -44.78190000     -30.66420000     -73.06190000
C      -43.29060000     -32.49130000     -72.83270000
C      -42.65890000     -31.88590000     -73.87500000
S      -46.18290000     -29.80370000     -72.63560000
S      -43.56260000     -30.31650000     -74.42160000
H      -41.97060000     -32.17380000     -74.64110000
