40
Properties=species:S:1:pos:R:3 #=T CELL(abcABC):=T 1.889726e+02=T 90.00000=T Traj:=T positionsangstrom=T Step:=T 0=T Bead:=T pbc="F F F"
C      -43.85090000     -35.24050000     -70.15840000
C      -43.54810000     -33.90120000     -69.90650000
C      -44.47410000     -33.04680000     -69.32280000
C      -45.79470000     -33.47250000     -69.08700000
C      -46.12430000     -34.82760000     -69.23760000
C      -45.11030000     -35.67130000     -69.72920000
H      -43.19730000     -35.95870000     -70.59660000
H      -44.20160000     -31.99300000     -69.16210000
H      -47.00560000     -35.20180000     -68.73730000
H      -45.30370000     -36.75660000     -69.71620000
C      -46.87330000     -32.47240000     -68.55790000
H      -46.99490000     -32.54130000     -67.44540000
H      -47.87380000     -32.68760000     -69.00130000
C      -42.14560000     -33.38700000     -70.19790000
H      -41.77500000     -32.72820000     -69.41350000
H      -41.44350000     -34.26710000     -70.11410000
S      -46.54530000     -30.68600000     -68.95350000
S      -41.82880000     -32.84090000     -71.99970000
C      -47.42600000     -30.61320000     -70.57270000
H      -48.37900000     -31.17280000     -70.36450000
H      -47.50750000     -29.50230000     -70.69440000
C      -43.15700000     -31.62640000     -72.35060000
H      -42.58940000     -30.72090000     -72.48370000
H      -43.80840000     -31.55570000     -71.49820000
C      -43.98470000     -32.05020000     -73.50920000
H      -44.75300000     -31.28290000     -73.66740000
H      -43.41020000     -32.16860000     -74.52470000
C      -46.70170000     -31.15940000     -71.82630000
H      -45.61590000     -30.88040000     -71.79370000
H      -46.94340000     -30.68510000     -72.81350000
C      -46.94010000     -32.66400000     -72.04430000
C      -48.03030000     -33.36140000     -71.55000000
C      -45.97740000     -33.52560000     -72.71120000
H      -48.87950000     -32.85390000     -71.06740000
C      -46.35060000     -34.85020000     -72.77510000
C      -44.61800000     -33.33880000     -73.30180000
C      -44.11480000     -34.48870000     -73.83230000
S      -47.91020000     -35.03060000     -71.95730000
S      -45.14160000     -35.82760000     -73.48560000
H      -43.23220000     -34.57900000     -74.40480000
