40
Properties=species:S:1:pos:R:3 #=T CELL(abcABC):=T 1.889726e+02=T 90.00000=T Traj:=T positionsangstrom=T Step:=T 0=T Bead:=T pbc="F F F"
C      -43.54900000     -34.80130000     -70.08310000
C      -43.38910000     -33.48500000     -69.65600000
C      -44.43500000     -32.77570000     -69.10510000
C      -45.66830000     -33.37340000     -68.92990000
C      -45.79540000     -34.71080000     -69.26100000
C      -44.72980000     -35.49250000     -69.80920000
H      -42.68020000     -35.31090000     -70.45350000
H      -44.29460000     -31.73900000     -68.88160000
H      -46.73410000     -35.19010000     -68.94750000
H      -44.81330000     -36.56860000     -70.00410000
C      -46.83910000     -32.65520000     -68.29870000
H      -46.62170000     -32.58470000     -67.29620000
H      -47.73650000     -33.19430000     -68.51650000
C      -42.06510000     -32.82360000     -69.92770000
H      -42.05520000     -31.85840000     -69.42490000
H      -41.21470000     -33.41480000     -69.50680000
S      -47.13540000     -30.90380000     -68.80390000
S      -41.80800000     -32.74730000     -71.80110000
C      -47.69410000     -30.79620000     -70.64930000
H      -48.75120000     -31.11120000     -70.65480000
H      -47.52250000     -29.71190000     -70.76370000
C      -43.16770000     -31.58890000     -72.11590000
H      -42.81100000     -30.50760000     -72.12630000
H      -43.76930000     -31.67630000     -71.26720000
C      -43.96550000     -31.89230000     -73.35540000
H      -44.73950000     -31.19540000     -73.70760000
H      -43.31490000     -31.83870000     -74.22500000
C      -46.84760000     -31.46920000     -71.66670000
H      -45.80910000     -31.18500000     -71.40090000
H      -46.93770000     -30.86440000     -72.60850000
C      -46.89970000     -32.91200000     -72.00350000
C      -47.98350000     -33.74860000     -71.60500000
C      -45.88950000     -33.61840000     -72.72410000
H      -48.97240000     -33.34170000     -71.29320000
C      -46.30660000     -34.94030000     -72.96830000
C      -44.60240000     -33.31670000     -73.25910000
C      -44.04430000     -34.34120000     -74.02950000
S      -47.92750000     -35.35000000     -72.34840000
S      -45.09300000     -35.80170000     -73.95840000
H      -43.10590000     -34.34530000     -74.59400000
