40
Properties=species:S:1:pos:R:3 #=T CELL(abcABC):=T 1.889726e+02=T 90.00000=T Traj:=T positionsangstrom=T Step:=T 0=T Bead:=T pbc="F F F"
C      -45.42850000     -29.49280000     -71.22810000
C      -44.75040000     -30.71630000     -70.86230000
C      -45.51430000     -31.46900000     -69.97920000
C      -46.83750000     -31.07620000     -69.54780000
C      -47.39660000     -29.84220000     -69.92280000
C      -46.70650000     -29.10180000     -70.83680000
H      -44.98210000     -28.81760000     -71.97330000
H      -45.13620000     -32.43590000     -69.56990000
H      -48.36840000     -29.56870000     -69.63750000
H      -46.97800000     -28.12900000     -71.11660000
C      -47.60880000     -32.03000000     -68.69530000
H      -48.41710000     -31.49990000     -68.18360000
H      -46.81020000     -32.30180000     -67.95920000
C      -43.44850000     -31.01920000     -71.49960000
H      -42.74830000     -30.22290000     -71.36170000
H      -42.98260000     -31.95040000     -71.00790000
S      -48.09060000     -33.61760000     -69.49040000
S      -43.67380000     -31.24960000     -73.33040000
C      -47.72550000     -33.53010000     -71.28140000
H      -48.60330000     -33.16580000     -71.75340000
H      -46.97660000     -32.82920000     -71.45830000
C      -45.23060000     -32.11060000     -73.52960000
H      -45.83450000     -31.55600000     -74.26560000
H      -45.68480000     -32.13430000     -72.55820000
C      -45.09400000     -33.52860000     -74.01620000
H      -46.06260000     -33.97170000     -74.29170000
H      -44.47050000     -33.57550000     -74.90690000
C      -47.55530000     -34.98380000     -71.70320000
H      -47.60420000     -35.06370000     -72.80220000
H      -48.40750000     -35.57270000     -71.23690000
C      -46.23020000     -35.69660000     -71.33060000
C      -46.08670000     -36.56340000     -70.29250000
C      -44.92260000     -35.23690000     -71.85530000
H      -46.82140000     -37.15090000     -69.85250000
C      -43.88200000     -35.95530000     -71.25240000
C      -44.36380000     -34.40400000     -72.97870000
C      -43.00320000     -34.55630000     -73.21290000
S      -44.41810000     -37.08830000     -70.01300000
S      -42.27320000     -35.68570000     -71.98270000
H      -42.30660000     -33.90350000     -73.85080000
