40
Properties=species:S:1:pos:R:3 #=T CELL(abcABC):=T 1.889726e+02=T 90.00000=T Traj:=T positionsangstrom=T Step:=T 0=T Bead:=T pbc="F F F"
C      -43.07840000     -34.80190000     -69.79730000
C      -43.18380000     -33.43900000     -69.42120000
C      -44.44740000     -32.91100000     -69.04590000
C      -45.54600000     -33.72490000     -69.00920000
C      -45.48230000     -35.15370000     -69.26730000
C      -44.21560000     -35.65680000     -69.66920000
H      -42.18200000     -35.29270000     -70.11470000
H      -44.56300000     -31.82510000     -68.97050000
H      -46.31250000     -35.85330000     -69.22850000
H      -44.05610000     -36.73290000     -69.70010000
C      -46.91750000     -33.15350000     -68.57520000
H      -46.92760000     -33.30090000     -67.49330000
H      -47.77830000     -33.62070000     -69.04340000
C      -41.99440000     -32.51020000     -69.58250000
H      -42.09770000     -31.67180000     -68.93510000
H      -41.06960000     -33.04580000     -69.31060000
S      -47.10390000     -31.22290000     -68.87000000
S      -41.94850000     -31.91020000     -71.46610000
C      -47.96490000     -31.12120000     -70.52580000
H      -48.95790000     -31.63920000     -70.45140000
H      -48.27930000     -30.08210000     -70.63360000
C      -43.61780000     -31.25870000     -71.88280000
H      -43.48980000     -30.11700000     -72.01200000
H      -44.35810000     -31.44610000     -71.10760000
C      -44.12800000     -31.74660000     -73.30210000
H      -44.98180000     -31.01340000     -73.53820000
H      -43.32190000     -31.56750000     -73.97160000
C      -47.12900000     -31.51770000     -71.73310000
H      -46.09580000     -31.25930000     -71.74950000
H      -47.54990000     -31.09250000     -72.71920000
C      -47.09040000     -33.02040000     -72.10560000
C      -48.11540000     -33.90650000     -71.83110000
C      -46.01050000     -33.59760000     -72.87460000
H      -49.13780000     -33.76160000     -71.43480000
C      -46.28960000     -34.93100000     -73.14820000
C      -44.66690000     -33.17320000     -73.33350000
C      -44.01620000     -34.17240000     -74.03570000
S      -47.85430000     -35.45750000     -72.69740000
S      -44.97510000     -35.75510000     -74.01460000
H      -43.06900000     -34.28380000     -74.58190000
