40
Properties=species:S:1:pos:R:3 #=T CELL(abcABC):=T 1.889726e+02=T 90.00000=T Traj:=T positionsangstrom=T Step:=T 0=T Bead:=T pbc="F F F"
C      -45.54180000     -29.76880000     -70.59030000
C      -44.83370000     -31.02320000     -70.65600000
C      -45.48460000     -32.12620000     -70.03140000
C      -46.73240000     -32.12450000     -69.51600000
C      -47.33930000     -30.83930000     -69.39290000
C      -46.76990000     -29.70770000     -69.94020000
H      -45.13610000     -28.92770000     -71.15360000
H      -44.86870000     -33.06660000     -70.05270000
H      -48.28790000     -30.79000000     -68.85950000
H      -47.20780000     -28.70890000     -69.67100000
C      -47.48130000     -33.37270000     -69.05590000
H      -47.97680000     -33.28570000     -68.11790000
H      -46.81620000     -34.24300000     -69.01000000
C      -43.58560000     -31.19570000     -71.44280000
H      -42.75660000     -30.56750000     -71.08720000
H      -43.23800000     -32.22600000     -71.41460000
S      -48.80970000     -33.81610000     -70.31030000
S      -43.81780000     -30.80280000     -73.20390000
C      -48.04380000     -33.63180000     -71.94530000
H      -48.91680000     -33.36120000     -72.64160000
H      -47.46630000     -32.70340000     -71.88310000
C      -45.05970000     -32.03840000     -73.82220000
H      -45.61790000     -31.55520000     -74.58810000
H      -45.78650000     -32.19860000     -72.95390000
C      -44.47440000     -33.40090000     -74.19450000
H      -45.31740000     -34.00450000     -74.59060000
H      -43.58370000     -33.22340000     -74.83540000
C      -47.23650000     -34.73990000     -72.55790000
H      -46.98550000     -34.36360000     -73.55460000
H      -47.89210000     -35.56840000     -72.80170000
C      -45.99250000     -35.18220000     -71.71870000
C      -46.16850000     -35.89840000     -70.56970000
C      -44.60420000     -34.90100000     -71.98580000
H      -47.06160000     -36.30100000     -70.34520000
C      -43.79360000     -35.63540000     -71.08400000
C      -43.82200000     -34.22490000     -72.99480000
C      -42.47110000     -34.43230000     -72.79490000
S      -44.68720000     -36.28620000     -69.68860000
S      -42.10140000     -35.47590000     -71.41450000
H      -41.72970000     -33.93740000     -73.36110000
