40
Properties=species:S:1:pos:R:3 #=T CELL(abcABC):=T 1.889726e+02=T 90.00000=T Traj:=T positionsangstrom=T Step:=T 0=T Bead:=T pbc="F F F"
C      -45.45380000     -29.81220000     -70.19190000
C      -44.91930000     -31.08950000     -70.46160000
C      -45.67750000     -32.20330000     -70.09480000
C      -47.02020000     -32.09880000     -69.50450000
C      -47.49120000     -30.82990000     -69.36980000
C      -46.71230000     -29.66800000     -69.51850000
H      -44.82050000     -28.89340000     -70.26160000
H      -45.38480000     -33.18820000     -70.41920000
H      -48.46050000     -30.73410000     -68.90960000
H      -47.13440000     -28.74550000     -69.32010000
C      -47.70080000     -33.37640000     -69.21740000
H      -48.34650000     -33.17890000     -68.35780000
H      -46.95620000     -34.07760000     -68.91900000
C      -43.62140000     -31.28410000     -71.18380000
H      -42.85160000     -30.55740000     -70.88680000
H      -43.25640000     -32.28170000     -71.09670000
S      -48.85060000     -34.01410000     -70.56150000
S      -43.70170000     -30.96900000     -73.08890000
C      -47.96270000     -33.74500000     -72.19060000
H      -48.84040000     -33.45900000     -72.85160000
H      -47.26510000     -32.86880000     -72.02160000
C      -44.91440000     -32.11380000     -73.94260000
H      -45.30640000     -31.61110000     -74.88780000
H      -45.71680000     -32.28830000     -73.27950000
C      -44.33560000     -33.48350000     -74.25810000
H      -45.07050000     -34.17910000     -74.79340000
H      -43.55670000     -33.46850000     -75.03240000
C      -47.19170000     -34.92900000     -72.83280000
H      -46.88260000     -34.63770000     -73.83480000
H      -47.85390000     -35.76800000     -72.80790000
C      -45.97290000     -35.34590000     -71.89400000
C      -46.10870000     -36.14250000     -70.77270000
C      -44.58930000     -34.90910000     -72.03110000
H      -47.08780000     -36.35800000     -70.41460000
C      -43.74310000     -35.42030000     -71.04510000
C      -43.82060000     -34.15370000     -72.99160000
C      -42.51820000     -34.03910000     -72.62100000
S      -44.65950000     -36.24400000     -69.79550000
S      -42.09130000     -34.97690000     -71.22780000
H      -41.64870000     -33.58550000     -73.07790000
