40
Properties=species:S:1:pos:R:3 #=T CELL(abcABC):=T 1.889726e+02=T 90.00000=T Traj:=T positionsangstrom=T Step:=T 0=T Bead:=T pbc="F F F"
C      -46.02750000     -29.68270000     -69.97350000
C      -45.16360000     -30.77250000     -70.12530000
C      -45.63850000     -32.08040000     -70.00900000
C      -47.00130000     -32.28770000     -69.79750000
C      -47.84960000     -31.16670000     -69.70890000
C      -47.40150000     -29.88610000     -69.71060000
H      -45.67020000     -28.63820000     -69.85390000
H      -44.99170000     -32.93070000     -70.04960000
H      -48.88810000     -31.34080000     -69.33300000
H      -48.14230000     -29.17850000     -69.48710000
C      -47.59100000     -33.63070000     -69.68910000
H      -48.34100000     -33.68760000     -68.84910000
H      -46.89120000     -34.42050000     -69.35890000
C      -43.70510000     -30.47660000     -70.59180000
H      -43.38810000     -29.48380000     -70.25290000
H      -42.91240000     -31.14930000     -70.14170000
S      -48.73480000     -34.16580000     -71.13310000
S      -43.66730000     -30.45430000     -72.50880000
C      -47.72220000     -33.94130000     -72.62390000
H      -48.26510000     -33.38560000     -73.38450000
H      -46.93960000     -33.27340000     -72.36120000
C      -44.91720000     -31.62510000     -73.09840000
H      -45.56510000     -31.12490000     -73.91970000
H      -45.59070000     -31.86610000     -72.31190000
C      -44.26370000     -32.89970000     -73.71780000
H      -45.14400000     -33.48140000     -74.12120000
H      -43.55670000     -32.63270000     -74.54590000
C      -47.02180000     -35.24630000     -73.16450000
H      -46.49100000     -34.94270000     -74.13170000
H      -47.65810000     -36.14960000     -73.42150000
C      -45.79610000     -35.64270000     -72.23190000
C      -45.95870000     -36.67110000     -71.33670000
C      -44.45100000     -34.98500000     -72.10690000
H      -46.89660000     -37.01670000     -70.96100000
C      -43.69030000     -35.60370000     -71.07480000
C      -43.70080000     -33.86860000     -72.68070000
C      -42.43040000     -33.79220000     -72.13940000
S      -44.58580000     -36.82740000     -70.29230000
S      -42.07870000     -34.96810000     -70.93850000
H      -41.76180000     -33.03790000     -72.42450000
