40
Properties=species:S:1:pos:R:3 #=T CELL(abcABC):=T 1.889726e+02=T 90.00000=T Traj:=T positionsangstrom=T Step:=T 0=T Bead:=T pbc="F F F"
C      -46.25900000     -29.96690000     -70.19850000
C      -45.37230000     -31.05800000     -70.18100000
C      -45.75440000     -32.34450000     -69.92280000
C      -47.11970000     -32.64390000     -69.87860000
C      -47.99070000     -31.56290000     -69.92790000
C      -47.61200000     -30.22770000     -70.00150000
H      -45.94790000     -28.98640000     -70.22290000
H      -44.97690000     -33.06370000     -69.73860000
H      -49.05540000     -31.85890000     -69.97630000
H      -48.40130000     -29.40710000     -69.99990000
C      -47.65270000     -34.04550000     -69.69370000
H      -48.15290000     -34.11770000     -68.70560000
H      -46.80700000     -34.66560000     -69.78370000
C      -43.88610000     -30.82870000     -70.31270000
H      -43.54770000     -30.09540000     -69.56420000
H      -43.28300000     -31.71930000     -70.13840000
S      -48.81390000     -34.45180000     -71.06040000
S      -43.38590000     -30.23230000     -71.98960000
C      -47.90610000     -33.99180000     -72.58240000
H      -48.59110000     -33.75130000     -73.33670000
H      -47.22750000     -33.15560000     -72.31010000
C      -44.56900000     -31.13170000     -73.15610000
H      -44.67120000     -30.46320000     -73.98590000
H      -45.51290000     -31.12000000     -72.69310000
C      -44.26450000     -32.55830000     -73.55720000
H      -45.19180000     -32.92550000     -74.02830000
H      -43.49680000     -32.59930000     -74.29090000
C      -46.86910000     -34.97470000     -73.16340000
H      -46.55390000     -34.47670000     -74.16540000
H      -47.40020000     -35.89790000     -73.45160000
C      -45.77350000     -35.40320000     -72.33200000
C      -45.74840000     -36.72560000     -71.84010000
C      -44.52920000     -34.67140000     -72.01600000
H      -46.44800000     -37.55610000     -72.11440000
C      -43.65480000     -35.48330000     -71.25010000
C      -43.77700000     -33.46910000     -72.45870000
C      -42.60660000     -33.24420000     -71.82270000
S      -44.28350000     -37.02810000     -70.89510000
S      -42.19980000     -34.65870000     -70.68770000
H      -41.94010000     -32.43760000     -71.89590000
