40
Properties=species:S:1:pos:R:3 #=T CELL(abcABC):=T 1.889726e+02=T 90.00000=T Traj:=T positionsangstrom=T Step:=T 0=T Bead:=T pbc="F F F"
C      -46.92450000     -30.01600000     -69.97640000
C      -45.82160000     -30.91390000     -69.80310000
C      -46.03260000     -32.30910000     -69.70750000
C      -47.35950000     -32.79250000     -69.82990000
C      -48.44440000     -31.92040000     -69.85670000
C      -48.23990000     -30.55030000     -69.92400000
H      -46.87420000     -29.00910000     -70.28710000
H      -45.19330000     -32.95580000     -69.79350000
H      -49.43340000     -32.32450000     -69.76120000
H      -48.98000000     -29.74920000     -69.86070000
C      -47.63660000     -34.28170000     -69.74660000
H      -48.35250000     -34.45570000     -68.85480000
H      -46.72870000     -34.84260000     -69.51650000
C      -44.31940000     -30.55340000     -69.91710000
H      -44.19380000     -29.69500000     -69.26310000
H      -43.75990000     -31.36970000     -69.39950000
S      -48.40670000     -34.94970000     -71.30700000
S      -43.64790000     -30.24260000     -71.55270000
C      -47.65720000     -33.90070000     -72.60320000
H      -48.50550000     -33.54610000     -73.20270000
H      -47.22860000     -33.01730000     -72.06230000
C      -44.74610000     -31.16420000     -72.77630000
H      -45.29880000     -30.53990000     -73.55840000
H      -45.46930000     -31.78170000     -72.15140000
C      -43.89310000     -32.23790000     -73.55760000
H      -44.61140000     -32.52850000     -74.32420000
H      -42.99870000     -31.90030000     -74.07350000
C      -46.60610000     -34.62000000     -73.46680000
H      -46.22010000     -33.84460000     -74.09690000
H      -47.09530000     -35.34240000     -74.11200000
C      -45.52670000     -35.18870000     -72.62790000
C      -45.59770000     -36.40380000     -71.98050000
C      -44.22760000     -34.56900000     -72.33810000
H      -46.50100000     -37.01310000     -71.95180000
C      -43.57880000     -35.27910000     -71.30650000
C      -43.47360000     -33.33780000     -72.72760000
C      -42.21950000     -33.40800000     -72.10180000
S      -44.28000000     -36.83150000     -70.84300000
S      -41.93900000     -34.73040000     -71.00950000
H      -41.34710000     -32.73250000     -72.17810000
