40
Properties=species:S:1:pos:R:3 #=T CELL(abcABC):=T 1.889726e+02=T 90.00000=T Traj:=T positionsangstrom=T Step:=T 0=T Bead:=T pbc="F F F"
C      -46.97460000     -30.16830000     -69.74110000
C      -45.84560000     -31.03300000     -69.71940000
C      -46.10160000     -32.43190000     -69.74320000
C      -47.42010000     -32.85890000     -69.80670000
C      -48.52650000     -31.99930000     -69.69700000
C      -48.28040000     -30.65560000     -69.72310000
H      -46.79010000     -29.10810000     -69.70710000
H      -45.34030000     -33.18800000     -69.52430000
H      -49.58190000     -32.40370000     -69.78760000
H      -49.08730000     -29.93240000     -69.84630000
C      -47.68320000     -34.28830000     -69.99840000
H      -48.39400000     -34.62410000     -69.21690000
H      -46.80580000     -34.84710000     -69.80170000
C      -44.51320000     -30.38100000     -69.71020000
H      -44.60450000     -29.36140000     -69.26470000
H      -43.81230000     -31.01120000     -69.13430000
S      -48.58780000     -34.72660000     -71.49640000
S      -43.74700000     -30.27420000     -71.47150000
C      -47.71110000     -33.91070000     -72.84530000
H      -48.37390000     -33.68480000     -73.66520000
H      -47.41220000     -32.92460000     -72.54360000
C      -44.81160000     -31.16380000     -72.60140000
H      -45.32030000     -30.43100000     -73.18890000
H      -45.54170000     -31.69390000     -72.05330000
C      -44.02190000     -32.18010000     -73.46200000
H      -44.64990000     -32.55340000     -74.28780000
H      -43.16120000     -31.58120000     -73.86460000
C      -46.48660000     -34.67670000     -73.52980000
H      -46.06650000     -34.17360000     -74.42170000
H      -46.92420000     -35.61740000     -73.85980000
C      -45.29820000     -35.20490000     -72.62890000
C      -45.51780000     -36.40560000     -71.98100000
C      -44.05050000     -34.56940000     -72.25590000
H      -46.46110000     -36.97560000     -71.91830000
C      -43.34570000     -35.37550000     -71.42880000
C      -43.40950000     -33.31680000     -72.62940000
C      -42.17380000     -33.19060000     -71.98380000
S      -44.14520000     -36.92600000     -71.03010000
S      -41.81150000     -34.69470000     -71.01730000
H      -41.48070000     -32.42620000     -71.79920000
