40
Properties=species:S:1:pos:R:3 #=T CELL(abcABC):=T 1.889726e+02=T 90.00000=T Traj:=T positionsangstrom=T Step:=T 0=T Bead:=T pbc="F F F"
C      -42.87950000     -32.80130000     -70.34710000
C      -43.85640000     -31.84980000     -70.21890000
C      -44.97530000     -32.16440000     -69.47360000
C      -45.10800000     -33.39340000     -68.84460000
C      -44.25890000     -34.43890000     -69.23500000
C      -43.11420000     -34.09040000     -69.92000000
H      -41.88810000     -32.59530000     -70.84890000
H      -45.70900000     -31.42710000     -69.31020000
H      -44.23620000     -35.38340000     -68.72900000
H      -42.41630000     -34.84880000     -70.03860000
C      -46.24520000     -33.65970000     -67.87650000
H      -46.06840000     -33.08230000     -66.88910000
H      -46.44770000     -34.72290000     -67.70160000
C      -43.74360000     -30.46830000     -70.77660000
H      -44.43010000     -29.74580000     -70.21160000
H      -42.76880000     -30.09800000     -70.53740000
S      -47.87590000     -32.91220000     -68.39220000
S      -44.15510000     -30.27340000     -72.57700000
C      -48.59400000     -33.86390000     -69.84620000
H      -48.68610000     -34.91590000     -69.56210000
H      -49.64840000     -33.46230000     -69.88240000
C      -45.92590000     -30.67360000     -72.64330000
H      -46.49270000     -29.78610000     -72.97080000
H      -46.25450000     -31.00440000     -71.64050000
C      -46.24890000     -31.76510000     -73.68380000
H      -47.27370000     -31.95490000     -73.49060000
H      -46.06320000     -31.43530000     -74.71660000
C      -47.96340000     -33.72670000     -71.29150000
H      -47.66820000     -32.71440000     -71.24760000
H      -48.73670000     -33.97180000     -72.07490000
C      -46.73350000     -34.53960000     -71.65780000
C      -46.55170000     -35.81320000     -71.18890000
C      -45.70380000     -34.17780000     -72.58150000
H      -47.25730000     -36.07360000     -70.38020000
C      -44.76230000     -35.26160000     -72.80950000
C      -45.42830000     -33.07290000     -73.48820000
C      -44.24670000     -33.22130000     -74.23570000
S      -45.09550000     -36.62560000     -71.82430000
S      -43.47450000     -34.77380000     -73.88420000
H      -43.79170000     -32.47850000     -74.88710000
