40
Properties=species:S:1:pos:R:3 #=T CELL(abcABC):=T 1.889726e+02=T 90.00000=T Traj:=T positionsangstrom=T Step:=T 0=T Bead:=T pbc="F F F"
C      -47.34370000     -30.46130000     -69.43120000
C      -46.27940000     -31.29270000     -69.59190000
C      -46.56640000     -32.63000000     -69.80640000
C      -47.86160000     -33.10130000     -70.01440000
C      -48.95920000     -32.19630000     -69.81170000
C      -48.69480000     -30.86860000     -69.51460000
H      -47.15910000     -29.42470000     -69.10080000
H      -45.68310000     -33.31060000     -69.82070000
H      -50.00410000     -32.47700000     -69.96860000
H      -49.45980000     -30.17040000     -69.31540000
C      -48.02160000     -34.56580000     -70.31700000
H      -48.83700000     -34.97990000     -69.80850000
H      -47.09760000     -35.06030000     -69.94040000
C      -44.80590000     -30.91410000     -69.58230000
H      -44.62120000     -30.33650000     -68.61830000
H      -44.33440000     -31.86550000     -69.49420000
S      -48.31610000     -34.96950000     -72.13560000
S      -44.31180000     -29.93010000     -71.13850000
C      -47.13650000     -33.92090000     -73.08480000
H      -47.80800000     -33.36580000     -73.75470000
H      -46.76570000     -33.24840000     -72.34140000
C      -45.01050000     -31.04470000     -72.37150000
H      -45.51630000     -30.49440000     -73.14550000
H      -45.79200000     -31.59500000     -71.90160000
C      -43.94320000     -31.94430000     -73.07940000
H      -44.43070000     -32.07890000     -74.07080000
H      -43.15530000     -31.15630000     -73.24620000
C      -46.00260000     -34.74610000     -73.73330000
H      -45.45180000     -34.19610000     -74.41260000
H      -46.40990000     -35.64570000     -74.22980000
C      -45.01870000     -35.18710000     -72.68500000
C      -45.06670000     -36.46680000     -72.18150000
C      -43.86340000     -34.45660000     -72.21800000
H      -45.87260000     -37.17500000     -72.32070000
C      -43.02050000     -35.21390000     -71.42520000
C      -43.39780000     -33.13510000     -72.31970000
C      -42.21430000     -32.99790000     -71.67630000
S      -43.62160000     -36.83150000     -71.16880000
S      -41.64070000     -34.32580000     -70.83170000
H      -41.84630000     -32.02770000     -71.79370000
