40
Properties=species:S:1:pos:R:3 #=T CELL(abcABC):=T 1.889726e+02=T 90.00000=T Traj:=T positionsangstrom=T Step:=T 0=T Bead:=T pbc="F F F"
C      -47.54030000     -30.81840000     -69.52240000
C      -46.39580000     -31.57770000     -69.71460000
C      -46.61640000     -32.92460000     -69.93110000
C      -47.86100000     -33.47830000     -70.09820000
C      -48.95600000     -32.69410000     -69.89070000
C      -48.79800000     -31.34840000     -69.59270000
H      -47.50610000     -29.73460000     -69.38070000
H      -45.75430000     -33.54060000     -69.98690000
H      -49.92350000     -33.05570000     -70.11540000
H      -49.66500000     -30.69770000     -69.60890000
C      -47.96910000     -34.93000000     -70.52220000
H      -48.81800000     -35.53280000     -70.02040000
H      -47.10550000     -35.54100000     -70.29400000
C      -44.95220000     -31.09940000     -69.61050000
H      -44.79660000     -30.48200000     -68.71060000
H      -44.18830000     -31.93780000     -69.69920000
S      -48.32150000     -35.19090000     -72.32810000
S      -44.33040000     -29.91940000     -70.96650000
C      -47.19070000     -33.95440000     -73.17220000
H      -47.65000000     -33.45690000     -74.00600000
H      -47.02370000     -33.16130000     -72.43820000
C      -44.93710000     -30.85120000     -72.47640000
H      -45.37990000     -30.14620000     -73.14140000
H      -45.84380000     -31.43150000     -72.18290000
C      -43.83760000     -31.69320000     -73.11510000
H      -44.22350000     -32.08320000     -74.10300000
H      -43.00310000     -30.98960000     -73.27350000
C      -45.88200000     -34.57720000     -73.76760000
H      -45.55650000     -33.66320000     -74.34100000
H      -46.12800000     -35.20140000     -74.55400000
C      -44.88660000     -35.04900000     -72.74730000
C      -44.84420000     -36.33680000     -72.24880000
C      -43.80520000     -34.24150000     -72.15810000
H      -45.42610000     -37.08120000     -72.78760000
C      -43.00460000     -34.94880000     -71.28750000
C      -43.34790000     -32.87380000     -72.23710000
C      -42.34020000     -32.55110000     -71.38100000
S      -43.43370000     -36.62260000     -71.18840000
S      -41.83240000     -34.00210000     -70.47220000
H      -41.86960000     -31.53420000     -71.30010000
