40
Properties=species:S:1:pos:R:3 #=T CELL(abcABC):=T 1.889726e+02=T 90.00000=T Traj:=T positionsangstrom=T Step:=T 0=T Bead:=T pbc="F F F"
C      -42.92050000     -32.02640000     -70.40300000
C      -44.10800000     -31.30280000     -70.13130000
C      -45.12630000     -31.90440000     -69.45190000
C      -44.99230000     -33.19720000     -69.06030000
C      -43.88880000     -33.99950000     -69.39420000
C      -42.81080000     -33.38460000     -70.11250000
H      -42.21580000     -31.47460000     -70.97310000
H      -46.02470000     -31.40010000     -69.20560000
H      -43.92940000     -35.06350000     -69.19090000
H      -41.90470000     -33.94420000     -70.35870000
C      -46.12100000     -33.94380000     -68.33200000
H      -45.92120000     -33.78740000     -67.18610000
H      -46.16420000     -35.00560000     -68.66360000
C      -44.46180000     -29.98610000     -70.76150000
H      -45.40870000     -29.57990000     -70.38390000
H      -43.61730000     -29.29510000     -70.53480000
S      -47.78680000     -33.31050000     -68.66660000
S      -44.73500000     -30.07230000     -72.61600000
C      -48.59830000     -34.44720000     -69.87160000
H      -48.55480000     -35.51850000     -69.57870000
H      -49.61400000     -34.08140000     -69.86050000
C      -46.37810000     -30.82330000     -72.60390000
H      -47.07140000     -30.09840000     -73.06720000
H      -46.66550000     -30.97550000     -71.57170000
C      -46.40900000     -32.00780000     -73.53850000
H      -47.41430000     -32.46600000     -73.63010000
H      -46.15440000     -31.72260000     -74.57120000
C      -48.00870000     -34.26560000     -71.32560000
H      -47.98160000     -33.17750000     -71.60890000
H      -48.59450000     -34.81970000     -72.08370000
C      -46.63600000     -34.90960000     -71.52420000
C      -46.28800000     -36.20450000     -71.18880000
C      -45.56600000     -34.33210000     -72.43460000
H      -46.91430000     -36.93540000     -70.65840000
C      -44.53490000     -35.23640000     -72.64480000
C      -45.36770000     -33.16630000     -73.22190000
C      -44.20890000     -33.13670000     -73.91940000
S      -44.71590000     -36.71830000     -71.72830000
S      -43.26440000     -34.68860000     -73.66290000
H      -43.81210000     -32.27530000     -74.48340000
