40
Properties=species:S:1:pos:R:3 #=T CELL(abcABC):=T 1.889726e+02=T 90.00000=T Traj:=T positionsangstrom=T Step:=T 0=T Bead:=T pbc="F F F"
C      -43.15760000     -31.84090000     -70.59960000
C      -44.29050000     -31.18780000     -70.11400000
C      -45.28660000     -31.82990000     -69.41370000
C      -45.04510000     -33.19130000     -69.13730000
C      -43.88390000     -33.89110000     -69.49970000
C      -42.85500000     -33.16360000     -70.22760000
H      -42.44050000     -31.27180000     -71.19270000
H      -46.21060000     -31.34580000     -69.14280000
H      -43.92880000     -35.01600000     -69.35080000
H      -41.93430000     -33.70990000     -70.47400000
C      -46.04060000     -33.96600000     -68.30190000
H      -45.91070000     -33.75390000     -67.28680000
H      -45.87810000     -35.04200000     -68.45680000
C      -44.46370000     -29.83490000     -70.78050000
H      -45.39070000     -29.39390000     -70.29690000
H      -43.60080000     -29.16360000     -70.58080000
S      -47.85400000     -33.42470000     -68.58440000
S      -44.75230000     -30.03680000     -72.55380000
C      -48.40280000     -34.60390000     -69.83040000
H      -48.21300000     -35.65810000     -69.53440000
H      -49.47530000     -34.40310000     -69.84900000
C      -46.44010000     -30.97620000     -72.50270000
H      -47.15990000     -30.19520000     -72.62560000
H      -46.59690000     -31.44180000     -71.53750000
C      -46.45750000     -32.14480000     -73.55040000
H      -47.49690000     -32.56460000     -73.46640000
H      -46.34620000     -31.67850000     -74.49450000
C      -47.78030000     -34.26280000     -71.22520000
H      -47.54260000     -33.19660000     -71.27990000
H      -48.60910000     -34.47110000     -71.94010000
C      -46.60370000     -35.03790000     -71.67940000
C      -46.28460000     -36.33620000     -71.31860000
C      -45.56160000     -34.45490000     -72.51540000
H      -46.88550000     -36.95790000     -70.61310000
C      -44.45860000     -35.28860000     -72.69220000
C      -45.46900000     -33.29170000     -73.27970000
C      -44.27060000     -33.18490000     -73.87350000
S      -44.63130000     -36.79290000     -71.81590000
S      -43.15700000     -34.45850000     -73.52100000
H      -43.86710000     -32.25850000     -74.40030000
