40
Properties=species:S:1:pos:R:3 #=T CELL(abcABC):=T 1.889726e+02=T 90.00000=T Traj:=T positionsangstrom=T Step:=T 0=T Bead:=T pbc="F F F"
C      -43.08460000     -31.76840000     -70.56370000
C      -44.32350000     -31.19210000     -70.25770000
C      -45.25740000     -31.81160000     -69.42050000
C      -45.08120000     -33.19550000     -69.09720000
C      -43.85740000     -33.81820000     -69.42320000
C      -42.85790000     -33.09310000     -70.16250000
H      -42.41460000     -31.16150000     -71.19460000
H      -46.24480000     -31.34780000     -69.07450000
H      -43.60150000     -34.76800000     -68.98670000
H      -41.90990000     -33.59520000     -70.38360000
C      -46.07650000     -33.87040000     -68.23910000
H      -45.88040000     -33.45550000     -67.24700000
H      -45.85300000     -34.96860000     -68.00750000
C      -44.52720000     -29.75380000     -70.79370000
H      -45.10130000     -29.09640000     -70.20580000
H      -43.58200000     -29.21070000     -70.87010000
S      -47.84690000     -33.64650000     -68.44900000
S      -45.16250000     -29.81000000     -72.60500000
C      -48.32840000     -34.83460000     -69.81430000
H      -47.95980000     -35.80400000     -69.48380000
H      -49.40230000     -35.06420000     -69.78480000
C      -46.53500000     -31.08680000     -72.50700000
H      -47.47720000     -30.51620000     -72.68330000
H      -46.62460000     -31.55780000     -71.51000000
C      -46.39850000     -32.19310000     -73.56860000
H      -47.35800000     -32.76990000     -73.64980000
H      -46.07500000     -31.85700000     -74.52850000
C      -47.91300000     -34.50460000     -71.30100000
H      -48.08790000     -33.46110000     -71.48470000
H      -48.66080000     -35.00190000     -71.87940000
C      -46.52710000     -35.00890000     -71.73500000
C      -46.12990000     -36.28970000     -71.30020000
C      -45.53500000     -34.43500000     -72.59030000
H      -46.69500000     -36.92020000     -70.61590000
C      -44.39480000     -35.26710000     -72.72630000
C      -45.31270000     -33.16500000     -73.23410000
C      -44.06150000     -33.04870000     -73.75690000
S      -44.57230000     -36.76740000     -71.91570000
S      -43.04160000     -34.50530000     -73.53850000
H      -43.83980000     -32.24580000     -74.48220000
