40
Properties=species:S:1:pos:R:3 #=T CELL(abcABC):=T 1.889726e+02=T 90.00000=T Traj:=T positionsangstrom=T Step:=T 0=T Bead:=T pbc="F F F"
C      -48.25910000     -31.69440000     -69.47770000
C      -46.89300000     -31.93260000     -69.71910000
C      -46.57430000     -33.26110000     -70.18510000
C      -47.58820000     -34.23700000     -70.33350000
C      -48.91770000     -33.89960000     -70.08940000
C      -49.28280000     -32.62930000     -69.68920000
H      -48.39790000     -30.69850000     -68.95110000
H      -45.50490000     -33.57400000     -70.32680000
H      -49.66360000     -34.63920000     -70.27860000
H      -50.28590000     -32.38000000     -69.39490000
C      -47.31100000     -35.63010000     -70.88240000
H      -48.11700000     -36.15490000     -70.26860000
H      -46.25650000     -35.87020000     -70.49890000
C      -45.70980000     -31.01950000     -69.43130000
H      -45.67050000     -30.72020000     -68.35280000
H      -44.85050000     -31.77140000     -69.43560000
S      -47.66580000     -35.82030000     -72.64970000
S      -45.35190000     -29.68860000     -70.66760000
C      -46.89020000     -34.30160000     -73.45730000
H      -47.57670000     -34.04680000     -74.31980000
H      -47.08030000     -33.47330000     -72.70150000
C      -45.52850000     -30.72180000     -72.23380000
H      -46.09510000     -30.04270000     -72.95980000
H      -46.18000000     -31.65470000     -72.04360000
C      -44.24370000     -31.22790000     -72.83350000
H      -44.43070000     -31.79720000     -73.81650000
H      -43.61440000     -30.27500000     -72.98900000
C      -45.42040000     -34.56720000     -73.91730000
H      -45.11460000     -33.71450000     -74.49360000
H      -45.43630000     -35.54150000     -74.47090000
C      -44.38830000     -34.70600000     -72.83870000
C      -43.99950000     -35.99890000     -72.57900000
C      -43.66750000     -33.71320000     -72.07170000
H      -44.47300000     -36.93380000     -73.01590000
C      -42.83190000     -34.35420000     -71.13120000
C      -43.54650000     -32.28650000     -71.97460000
C      -42.63320000     -31.87920000     -71.01940000
S      -42.75670000     -36.09580000     -71.33450000
S      -41.91100000     -33.18620000     -70.18300000
H      -42.30480000     -30.84400000     -70.80220000
