40
Properties=species:S:1:pos:R:3 #=T CELL(abcABC):=T 1.889726e+02=T 90.00000=T Traj:=T positionsangstrom=T Step:=T 0=T Bead:=T pbc="F F F"
C      -48.23550000     -31.71080000     -69.40170000
C      -46.89410000     -32.08110000     -69.66810000
C      -46.60330000     -33.39140000     -70.09420000
C      -47.63960000     -34.30350000     -70.28200000
C      -48.93280000     -33.94040000     -69.98660000
C      -49.24780000     -32.69840000     -69.50290000
H      -48.52440000     -30.65370000     -69.16450000
H      -45.60310000     -33.67940000     -70.36620000
H      -49.70890000     -34.61910000     -70.17540000
H      -50.24120000     -32.45420000     -69.37000000
C      -47.31570000     -35.67620000     -70.71280000
H      -47.99880000     -36.50940000     -70.25430000
H      -46.41660000     -36.02310000     -70.49310000
C      -45.77220000     -31.16480000     -69.37360000
H      -46.04410000     -30.52980000     -68.51210000
H      -44.89050000     -31.76280000     -69.28420000
S      -47.54540000     -35.95440000     -72.61940000
S      -45.55850000     -29.85790000     -70.71440000
C      -46.88300000     -34.39230000     -73.28340000
H      -47.53260000     -34.20470000     -74.06210000
H      -46.95440000     -33.65320000     -72.46450000
C      -45.67860000     -30.71600000     -72.34860000
H      -45.97520000     -29.92660000     -72.94870000
H      -46.45850000     -31.40830000     -72.25720000
C      -44.36440000     -31.22310000     -72.95920000
H      -44.48810000     -31.64600000     -73.94470000
H      -43.67040000     -30.42000000     -73.05930000
C      -45.45150000     -34.31650000     -73.82430000
H      -45.24280000     -33.32820000     -74.18570000
H      -45.38300000     -34.89990000     -74.72920000
C      -44.34170000     -34.62500000     -72.88240000
C      -43.94220000     -35.90100000     -72.54230000
C      -43.56360000     -33.58720000     -72.16430000
H      -44.33470000     -36.75290000     -73.08310000
C      -42.65060000     -34.24850000     -71.31810000
C      -43.61930000     -32.16800000     -71.99660000
C      -42.70590000     -31.74440000     -71.02550000
S      -42.59930000     -35.96220000     -71.42880000
S      -41.88780000     -33.11090000     -70.26180000
H      -42.72810000     -30.70180000     -70.65960000
