40
Properties=species:S:1:pos:R:3 #=T CELL(abcABC):=T 1.889726e+02=T 90.00000=T Traj:=T positionsangstrom=T Step:=T 0=T Bead:=T pbc="F F F"
C      -45.43570000     -36.57840000     -70.49600000
C      -45.52540000     -36.40170000     -71.89910000
C      -44.43270000     -35.78780000     -72.57460000
C      -43.26850000     -35.44160000     -71.89500000
C      -43.15000000     -35.71850000     -70.53810000
C      -44.26880000     -36.30390000     -69.85560000
H      -46.09100000     -37.22160000     -69.91980000
H      -44.52900000     -35.50130000     -73.67140000
H      -42.36080000     -35.23650000     -69.87340000
H      -44.13080000     -36.51590000     -68.78530000
C      -42.10040000     -34.63120000     -72.60810000
H      -42.15390000     -34.90340000     -73.68390000
H      -41.13860000     -34.91410000     -72.21040000
C      -46.82120000     -36.74560000     -72.51680000
H      -46.68900000     -36.85810000     -73.60930000
H      -47.05210000     -37.71920000     -72.18880000
S      -42.33700000     -32.85320000     -72.35660000
S      -48.33740000     -35.67670000     -72.12840000
C      -43.69320000     -32.35710000     -73.50280000
H      -43.34140000     -32.28220000     -74.57010000
H      -44.37160000     -33.16850000     -73.59290000
C      -48.11520000     -34.04880000     -73.02090000
H      -49.12350000     -33.57080000     -73.00440000
H      -48.07710000     -34.31200000     -74.13910000
C      -46.89790000     -33.27500000     -72.62880000
H      -46.09510000     -33.98420000     -72.82420000
H      -46.72810000     -32.51110000     -73.39450000
C      -44.28420000     -31.05410000     -73.10430000
H      -45.13360000     -30.90030000     -73.77140000
H      -43.53600000     -30.27810000     -73.38000000
C      -44.67330000     -30.88940000     -71.67590000
C      -44.08120000     -30.01160000     -70.83260000
C      -45.75640000     -31.62790000     -70.97290000
H      -43.09580000     -29.44150000     -71.06330000
C      -45.84730000     -31.23110000     -69.61910000
C      -46.75730000     -32.66030000     -71.26820000
C      -47.52470000     -32.91740000     -70.16920000
S      -44.67760000     -30.04360000     -69.18970000
S      -47.07330000     -32.02120000     -68.70900000
H      -48.31320000     -33.66010000     -70.08820000
