40
Properties=species:S:1:pos:R:3 #=T CELL(abcABC):=T 1.889726e+02=T 90.00000=T Traj:=T positionsangstrom=T Step:=T 0=T Bead:=T pbc="F F F"
C      -47.62040000     -37.26460000     -71.17960000
C      -46.41000000     -36.74100000     -70.79440000
C      -46.42030000     -35.63440000     -69.88150000
C      -47.58200000     -35.26830000     -69.22970000
C      -48.79950000     -35.87830000     -69.63220000
C      -48.82360000     -36.92070000     -70.57500000
H      -47.70280000     -38.12950000     -71.89440000
H      -45.43460000     -35.25010000     -69.60280000
H      -49.67930000     -35.57970000     -69.09310000
H      -49.81760000     -37.32980000     -70.92910000
C      -47.61700000     -34.28030000     -68.06040000
H      -47.97600000     -34.70860000     -67.14310000
H      -48.30980000     -33.45850000     -68.31030000
C      -45.15860000     -37.40580000     -71.37870000
H      -44.73560000     -38.14310000     -70.71180000
H      -45.39180000     -38.05370000     -72.29460000
S      -46.01430000     -33.53480000     -67.63530000
S      -43.67100000     -36.35700000     -71.63180000
C      -45.71500000     -32.11860000     -68.80510000
H      -46.72570000     -31.88770000     -69.03160000
H      -45.16470000     -31.38010000     -68.16740000
C      -44.08300000     -34.90190000     -72.58870000
H      -44.97660000     -34.41250000     -72.18010000
H      -44.27870000     -35.09830000     -73.62080000
C      -42.98400000     -33.77870000     -72.61670000
H      -42.55700000     -33.82930000     -71.61420000
H      -42.14820000     -34.03360000     -73.32370000
C      -44.92550000     -32.43840000     -70.08180000
H      -45.35820000     -33.34210000     -70.57790000
H      -43.84760000     -32.75460000     -69.94090000
C      -44.90370000     -31.33520000     -71.16620000
C      -45.45200000     -30.06550000     -70.99260000
C      -44.23960000     -31.45470000     -72.49250000
H      -45.93110000     -29.67070000     -70.08990000
C      -44.42580000     -30.34900000     -73.31490000
C      -43.52720000     -32.44420000     -73.17650000
C      -43.17630000     -32.13050000     -74.50310000
S      -45.18940000     -28.97680000     -72.45760000
S      -43.76060000     -30.48890000     -74.86650000
H      -42.51200000     -32.76170000     -75.16490000
