40
Properties=species:S:1:pos:R:3 #=T CELL(abcABC):=T 1.889726e+02=T 90.00000=T Traj:=T positionsangstrom=T Step:=T 0=T Bead:=T pbc="F F F"
C      -45.14740000     -36.52360000     -70.42240000
C      -45.23670000     -36.17550000     -71.77160000
C      -44.11850000     -35.54320000     -72.45000000
C      -43.11920000     -34.98490000     -71.65510000
C      -43.08110000     -35.19980000     -70.25830000
C      -44.07910000     -36.04480000     -69.65100000
H      -45.95770000     -37.08820000     -70.05880000
H      -44.18120000     -35.60860000     -73.55940000
H      -42.23290000     -34.89170000     -69.60870000
H      -43.97500000     -36.18620000     -68.55840000
C      -41.91910000     -34.32150000     -72.32680000
H      -41.75040000     -34.76930000     -73.32400000
H      -40.98580000     -34.42540000     -71.77370000
C      -46.49820000     -36.74320000     -72.53790000
H      -46.35990000     -36.72170000     -73.61540000
H      -46.60580000     -37.74360000     -72.22500000
S      -42.09580000     -32.49160000     -72.68220000
S      -48.09350000     -36.02880000     -72.08720000
C      -43.75870000     -32.43270000     -73.54310000
H      -43.51290000     -32.43310000     -74.58690000
H      -44.23400000     -33.34190000     -73.16870000
C      -48.11950000     -34.34500000     -72.95940000
H      -49.14810000     -33.96890000     -72.71780000
H      -47.97360000     -34.59040000     -74.02430000
C      -46.99110000     -33.38630000     -72.67010000
H      -45.98920000     -33.87220000     -72.82290000
H      -47.02450000     -32.68800000     -73.52250000
C      -44.54280000     -31.22490000     -73.16970000
H      -45.33760000     -31.06020000     -73.88960000
H      -43.99300000     -30.31180000     -73.42980000
C      -44.98540000     -31.09950000     -71.73650000
C      -44.28450000     -30.21970000     -70.90060000
C      -46.01510000     -31.77070000     -70.97190000
H      -43.40290000     -29.71110000     -71.14790000
C      -46.10700000     -31.26970000     -69.65550000
C      -47.02210000     -32.71960000     -71.30000000
C      -47.76950000     -33.06890000     -70.22400000
S      -44.89790000     -30.14050000     -69.25440000
S      -47.30340000     -32.15160000     -68.77470000
H      -48.47650000     -33.88300000     -70.14980000
