40
Properties=species:S:1:pos:R:3 #=T CELL(abcABC):=T 1.889726e+02=T 90.00000=T Traj:=T positionsangstrom=T Step:=T 0=T Bead:=T pbc="F F F"
C      -48.26410000     -33.44960000     -68.82460000
C      -47.04100000     -32.88090000     -69.43720000
C      -45.97960000     -33.83080000     -69.67880000
C      -46.06390000     -35.21700000     -69.36770000
C      -47.30080000     -35.71480000     -68.91180000
C      -48.42650000     -34.82660000     -68.81420000
H      -49.14860000     -32.94180000     -68.58600000
H      -45.08710000     -33.40190000     -70.18420000
H      -47.46180000     -36.77750000     -68.62320000
H      -49.33960000     -35.19930000     -68.47780000
C      -44.95060000     -36.13390000     -69.84010000
H      -44.75070000     -36.91970000     -69.09440000
H      -43.97710000     -35.60040000     -69.86810000
C      -46.80360000     -31.45320000     -69.72850000
H      -46.89250000     -30.81740000     -68.79770000
H      -45.75750000     -31.22940000     -70.04620000
S      -45.52070000     -36.92240000     -71.48830000
S      -47.80450000     -30.82180000     -71.19880000
C      -46.07420000     -35.60350000     -72.56240000
H      -46.92170000     -35.98150000     -73.02890000
H      -46.50840000     -34.73430000     -71.99130000
C      -47.59610000     -32.13850000     -72.37600000
H      -48.58480000     -32.29950000     -72.89730000
H      -47.48210000     -33.15530000     -71.84090000
C      -46.40460000     -31.94840000     -73.38250000
H      -46.36420000     -32.74680000     -73.99570000
H      -46.53640000     -31.06010000     -74.08800000
C      -44.94770000     -35.11480000     -73.48940000
H      -45.30120000     -34.58310000     -74.31460000
H      -44.36130000     -35.89900000     -73.85830000
C      -43.97380000     -34.24000000     -72.71390000
C      -42.74070000     -34.74880000     -72.28300000
C      -44.04270000     -32.80340000     -72.49560000
H      -42.40480000     -35.74110000     -72.42520000
C      -42.86660000     -32.32190000     -71.92320000
C      -45.04430000     -31.75440000     -72.77060000
C      -44.50810000     -30.50130000     -72.36700000
S      -41.65790000     -33.55020000     -71.64220000
S      -42.92290000     -30.56140000     -71.73110000
H      -44.98100000     -29.51400000     -72.53520000
