40
Properties=species:S:1:pos:R:3 #=T CELL(abcABC):=T 1.889726e+02=T 90.00000=T Traj:=T positionsangstrom=T Step:=T 0=T Bead:=T pbc="F F F"
C      -48.18660000     -35.17630000     -71.87280000
C      -48.54190000     -34.07500000     -72.63160000
C      -48.71740000     -32.76160000     -72.12940000
C      -48.44270000     -32.55850000     -70.71840000
C      -47.99100000     -33.63530000     -69.96710000
C      -47.96560000     -34.95770000     -70.51140000
H      -48.17740000     -36.14020000     -72.42350000
H      -48.94830000     -31.94510000     -72.77030000
H      -47.55450000     -33.50140000     -68.92920000
H      -47.70300000     -35.78030000     -69.74080000
C      -48.39790000     -31.14010000     -70.10970000
H      -48.28960000     -31.23630000     -69.00430000
H      -49.32020000     -30.57290000     -70.31680000
C      -48.60080000     -34.27620000     -74.14080000
H      -49.03990000     -35.29850000     -74.26180000
H      -49.18860000     -33.47300000     -74.59050000
S      -46.89690000     -30.16170000     -70.63420000
S      -46.86040000     -33.92350000     -74.73550000
C      -45.57810000     -31.35490000     -70.05470000
H      -45.56300000     -31.18070000     -68.90280000
H      -45.96330000     -32.38780000     -70.21220000
C      -45.65090000     -34.72910000     -73.65010000
H      -44.97070000     -35.28200000     -74.32940000
H      -46.05950000     -35.38050000     -72.93250000
C      -44.87360000     -33.71490000     -72.73280000
H      -44.33470000     -33.03500000     -73.38020000
H      -45.65220000     -33.36360000     -72.00380000
C      -44.20440000     -31.09120000     -70.62850000
H      -43.71270000     -30.11090000     -70.36240000
H      -44.31940000     -31.07590000     -71.75000000
C      -43.20810000     -32.22810000     -70.26380000
C      -42.27770000     -31.93600000     -69.30980000
C      -43.21830000     -33.58370000     -70.77040000
H      -42.10700000     -31.06070000     -68.75800000
C      -42.15570000     -34.27520000     -70.14280000
C      -43.75350000     -34.34840000     -71.93270000
C      -43.23760000     -35.58870000     -72.00480000
S      -41.27170000     -33.36990000     -68.90470000
S      -42.05250000     -35.97760000     -70.72670000
H      -43.68080000     -36.35520000     -72.64210000
