40
Properties=species:S:1:pos:R:3 #=T CELL(abcABC):=T 1.889726e+02=T 90.00000=T Traj:=T positionsangstrom=T Step:=T 0=T Bead:=T pbc="F F F"
C      -44.98000000     -35.46700000     -69.99980000
C      -44.93290000     -35.81920000     -71.38730000
C      -44.05240000     -35.20270000     -72.27690000
C      -43.08560000     -34.28930000     -71.75920000
C      -43.22870000     -33.84990000     -70.44030000
C      -44.15930000     -34.44170000     -69.59150000
H      -45.62520000     -35.96570000     -69.28230000
H      -44.09810000     -35.51320000     -73.27980000
H      -42.50970000     -33.14110000     -70.02390000
H      -44.16120000     -34.10400000     -68.60280000
C      -42.00560000     -33.78810000     -72.62170000
H      -41.76440000     -34.49500000     -73.46560000
H      -41.11190000     -33.64480000     -72.02850000
C      -45.90930000     -36.84370000     -71.86670000
H      -45.81570000     -36.99700000     -72.91180000
H      -45.66590000     -37.75060000     -71.29560000
S      -42.18620000     -32.12550000     -73.41830000
S      -47.66480000     -36.37810000     -71.48600000
C      -43.98600000     -32.03480000     -73.96980000
H      -43.81430000     -31.67350000     -75.02770000
H      -44.46130000     -33.03620000     -74.00920000
C      -48.09430000     -35.10750000     -72.80580000
H      -49.23670000     -34.95590000     -72.69570000
H      -47.94910000     -35.51710000     -73.79640000
C      -47.37550000     -33.73720000     -72.79640000
H      -46.44680000     -33.98390000     -73.29610000
H      -47.76510000     -33.07220000     -73.59990000
C      -44.94160000     -31.11520000     -73.21770000
H      -45.91200000     -31.28210000     -73.74880000
H      -44.60890000     -30.08860000     -73.40500000
C      -45.08660000     -31.30300000     -71.71060000
C      -44.33340000     -30.60400000     -70.79410000
C      -46.11620000     -32.14370000     -71.05750000
H      -43.53960000     -29.89230000     -71.00710000
C      -46.05330000     -31.97010000     -69.66680000
C      -47.14640000     -33.03080000     -71.44340000
C      -47.99420000     -33.42670000     -70.44430000
S      -44.87630000     -30.75360000     -69.15440000
S      -47.33850000     -32.76660000     -68.87980000
H      -48.80610000     -34.18970000     -70.47430000
