40
Properties=species:S:1:pos:R:3 #=T CELL(abcABC):=T 1.889726e+02=T 90.00000=T Traj:=T positionsangstrom=T Step:=T 0=T Bead:=T pbc="F F F"
C      -44.99140000     -35.27560000     -70.08750000
C      -44.89290000     -35.76620000     -71.38060000
C      -43.89780000     -35.29100000     -72.26580000
C      -43.03600000     -34.28860000     -71.81900000
C      -43.10750000     -33.84560000     -70.49470000
C      -44.09220000     -34.29220000     -69.60480000
H      -45.88670000     -35.45270000     -69.54970000
H      -43.68270000     -35.62000000     -73.29330000
H      -42.40680000     -33.00090000     -70.18230000
H      -44.21190000     -33.90550000     -68.56710000
C      -41.99400000     -33.75700000     -72.77800000
H      -41.88980000     -34.29490000     -73.72880000
H      -41.03580000     -33.74690000     -72.26620000
C      -45.91360000     -36.76810000     -71.97630000
H      -45.82590000     -36.82930000     -73.10670000
H      -45.70610000     -37.74130000     -71.51750000
S      -42.40640000     -31.90300000     -73.22680000
S      -47.72290000     -36.43530000     -71.64310000
C      -43.99990000     -32.24740000     -73.97520000
H      -44.05150000     -32.02810000     -75.02420000
H      -44.21620000     -33.27010000     -73.85810000
C      -48.16630000     -34.99380000     -72.80950000
H      -49.29180000     -34.76610000     -72.60690000
H      -48.18320000     -35.42520000     -73.78210000
C      -47.27540000     -33.81480000     -72.72240000
H      -46.24790000     -34.11690000     -72.93120000
H      -47.55620000     -32.99960000     -73.46120000
C      -45.03250000     -31.33520000     -73.28240000
H      -45.97750000     -31.38800000     -73.81420000
H      -44.87500000     -30.25560000     -73.46750000
C      -45.08030000     -31.41090000     -71.77300000
C      -44.29970000     -30.70140000     -70.92740000
C      -46.14650000     -32.16240000     -71.05740000
H      -43.37320000     -30.26350000     -71.27650000
C      -46.11420000     -31.87940000     -69.67520000
C      -47.17970000     -33.13680000     -71.30070000
C      -47.82750000     -33.52710000     -70.16340000
S      -44.69180000     -30.95970000     -69.16590000
S      -47.41250000     -32.60450000     -68.79140000
H      -48.70960000     -34.25730000     -70.15390000
