40
Properties=species:S:1:pos:R:3 #=T CELL(abcABC):=T 1.889726e+02=T 90.00000=T Traj:=T positionsangstrom=T Step:=T 0=T Bead:=T pbc="F F F"
C      -44.98370000     -35.15140000     -70.23360000
C      -44.91110000     -35.64110000     -71.54000000
C      -43.90200000     -35.15490000     -72.39030000
C      -42.88190000     -34.38060000     -71.83890000
C      -42.87980000     -33.99540000     -70.48790000
C      -43.99800000     -34.31050000     -69.66390000
H      -45.73640000     -35.44510000     -69.50610000
H      -43.83200000     -35.35850000     -73.50310000
H      -42.00860000     -33.40560000     -70.24000000
H      -44.02890000     -34.05550000     -68.58080000
C      -41.89270000     -33.72260000     -72.76800000
H      -41.86570000     -34.28630000     -73.68190000
H      -40.89390000     -33.75580000     -72.28890000
C      -45.83130000     -36.70740000     -72.08840000
H      -45.64350000     -36.82910000     -73.14940000
H      -45.60160000     -37.67770000     -71.73350000
S      -42.37100000     -32.00590000     -73.19230000
S      -47.63920000     -36.46120000     -71.76680000
C      -44.04180000     -32.15260000     -73.95040000
H      -44.04790000     -31.95030000     -75.04770000
H      -44.27180000     -33.28480000     -73.85560000
C      -48.13850000     -35.06020000     -72.81450000
H      -49.19610000     -34.97140000     -72.74270000
H      -47.89100000     -35.34850000     -73.85590000
C      -47.44690000     -33.69320000     -72.62520000
H      -46.39600000     -33.86590000     -72.96270000
H      -47.93650000     -33.07580000     -73.31880000
C      -45.21330000     -31.28060000     -73.23160000
H      -46.16170000     -31.62020000     -73.64430000
H      -44.93890000     -30.27450000     -73.64460000
C      -45.29160000     -31.41940000     -71.72380000
C      -44.41660000     -30.65730000     -70.98760000
C      -46.28780000     -32.13930000     -70.93170000
H      -43.76620000     -29.85760000     -71.30800000
C      -46.11330000     -31.88990000     -69.57550000
C      -47.36180000     -33.08230000     -71.22350000
C      -47.97190000     -33.53510000     -70.08570000
S      -44.72680000     -30.85190000     -69.24110000
S      -47.30900000     -32.77640000     -68.58400000
H      -48.72450000     -34.35680000     -70.09170000
