40
Properties=species:S:1:pos:R:3 #=T CELL(abcABC):=T 1.889726e+02=T 90.00000=T Traj:=T positionsangstrom=T Step:=T 0=T Bead:=T pbc="F F F"
C      -48.77070000     -34.84780000     -70.61880000
C      -48.35950000     -34.28490000     -71.84910000
C      -48.15240000     -32.91330000     -71.88760000
C      -48.33510000     -32.11410000     -70.69500000
C      -48.89470000     -32.65450000     -69.56270000
C      -49.04900000     -34.08110000     -69.48520000
H      -48.90240000     -35.89250000     -70.58330000
H      -47.86080000     -32.43040000     -72.86690000
H      -49.15190000     -31.94100000     -68.79160000
H      -49.46350000     -34.50130000     -68.55550000
C      -48.16580000     -30.55790000     -70.73630000
H      -48.56400000     -30.09190000     -69.83330000
H      -48.77400000     -30.11960000     -71.46160000
C      -48.12490000     -35.25600000     -73.05160000
H      -47.60050000     -36.19350000     -72.78350000
H      -49.07420000     -35.61010000     -73.49700000
S      -46.49870000     -29.96780000     -71.10630000
S      -47.21060000     -34.52310000     -74.40930000
C      -45.21730000     -31.15770000     -70.35860000
H      -45.13130000     -30.69620000     -69.31810000
H      -45.66820000     -32.21640000     -70.33390000
C      -45.34370000     -34.89970000     -73.98270000
H      -44.67690000     -35.10020000     -74.92960000
H      -45.50980000     -35.82250000     -73.37240000
C      -44.72200000     -33.83830000     -73.06760000
H      -44.58760000     -32.87300000     -73.56140000
H      -45.41470000     -33.61400000     -72.28120000
C      -43.93000000     -31.10130000     -71.18340000
H      -43.45730000     -30.10180000     -71.15500000
H      -44.26870000     -31.14490000     -72.24670000
C      -43.05180000     -32.25120000     -70.60360000
C      -42.26540000     -32.06140000     -69.48320000
C      -42.97570000     -33.56240000     -71.18290000
H      -42.03900000     -31.08510000     -69.07670000
C      -42.22240000     -34.32910000     -70.32000000
C      -43.50530000     -34.33630000     -72.28070000
C      -43.13450000     -35.65250000     -72.28600000
S      -41.52260000     -33.56610000     -68.97360000
S      -42.17530000     -35.98830000     -70.85950000
H      -43.38460000     -36.50470000     -72.76880000
