40
Properties=species:S:1:pos:R:3 #=T CELL(abcABC):=T 1.889726e+02=T 90.00000=T Traj:=T positionsangstrom=T Step:=T 0=T Bead:=T pbc="F F F"
C      -48.90740000     -34.61330000     -70.46640000
C      -48.53880000     -34.10330000     -71.73470000
C      -48.28670000     -32.72380000     -71.87970000
C      -48.51990000     -31.84250000     -70.79890000
C      -48.85630000     -32.37990000     -69.48710000
C      -49.12630000     -33.73290000     -69.41260000
H      -49.16430000     -35.68600000     -70.27510000
H      -47.94290000     -32.25310000     -72.78820000
H      -48.90920000     -31.68580000     -68.63980000
H      -49.56170000     -34.12520000     -68.50010000
C      -48.20590000     -30.35730000     -71.00070000
H      -48.24300000     -29.89640000     -70.04890000
H      -48.92110000     -29.74240000     -71.59330000
C      -48.30990000     -35.06870000     -72.89250000
H      -47.99770000     -36.08260000     -72.56140000
H      -49.21720000     -35.31280000     -73.42980000
S      -46.50820000     -30.07110000     -71.69910000
S      -47.15960000     -34.59820000     -74.20100000
C      -45.48990000     -31.27670000     -70.70860000
H      -45.46870000     -31.03810000     -69.57360000
H      -45.86310000     -32.35030000     -70.68510000
C      -45.52540000     -35.21680000     -73.60800000
H      -45.03060000     -35.61970000     -74.56590000
H      -45.57600000     -36.11590000     -72.86250000
C      -44.68390000     -34.12910000     -72.99740000
H      -44.25870000     -33.48100000     -73.73060000
H      -45.27480000     -33.44520000     -72.30480000
C      -44.05370000     -31.23830000     -71.15090000
H      -43.55030000     -30.26460000     -70.97600000
H      -44.00980000     -31.33090000     -72.26330000
C      -43.20790000     -32.41320000     -70.48240000
C      -42.42530000     -32.03690000     -69.44800000
C      -43.03220000     -33.71450000     -71.04450000
H      -42.42890000     -31.28280000     -68.65900000
C      -42.05300000     -34.39880000     -70.26930000
C      -43.49270000     -34.59460000     -72.13100000
C      -42.97120000     -35.82730000     -72.13260000
S      -41.36860000     -33.43430000     -68.97940000
S      -41.79010000     -36.01690000     -70.87300000
H      -43.12030000     -36.59290000     -72.90660000
