40
Properties=species:S:1:pos:R:3 #=T CELL(abcABC):=T 1.889726e+02=T 90.00000=T Traj:=T positionsangstrom=T Step:=T 0=T Bead:=T pbc="F F F"
C      -49.05690000     -34.47820000     -70.47020000
C      -48.62730000     -34.00470000     -71.74930000
C      -48.51340000     -32.63600000     -72.01130000
C      -48.52680000     -31.75430000     -70.91350000
C      -48.89460000     -32.20980000     -69.64760000
C      -49.19590000     -33.56040000     -69.48100000
H      -49.14390000     -35.50000000     -70.30990000
H      -48.36310000     -32.23100000     -73.00720000
H      -49.03930000     -31.60560000     -68.78330000
H      -49.46830000     -33.75760000     -68.44670000
C      -48.20400000     -30.32130000     -71.10800000
H      -48.12540000     -29.69610000     -70.16980000
H      -48.85230000     -29.69980000     -71.75600000
C      -48.56320000     -35.01400000     -72.86050000
H      -48.37860000     -36.00130000     -72.52040000
H      -49.47080000     -34.83240000     -73.47050000
S      -46.48460000     -30.25860000     -71.87970000
S      -47.18290000     -34.57940000     -74.08060000
C      -45.36430000     -31.20940000     -70.78770000
H      -45.38480000     -30.63970000     -69.91090000
H      -45.91610000     -32.12250000     -70.65790000
C      -45.62640000     -35.34480000     -73.28550000
H      -45.17170000     -35.93750000     -74.00200000
H      -45.89330000     -35.98800000     -72.48010000
C      -44.77260000     -34.22610000     -72.67760000
H      -44.60160000     -33.41160000     -73.38060000
H      -45.45940000     -33.80630000     -71.99040000
C      -43.96820000     -31.38580000     -71.31890000
H      -43.51780000     -30.36720000     -71.39430000
H      -44.00510000     -31.74070000     -72.33160000
C      -43.09790000     -32.34870000     -70.54590000
C      -42.37910000     -32.09810000     -69.45390000
C      -42.83570000     -33.69260000     -71.09980000
H      -42.30550000     -31.28020000     -68.77500000
C      -41.89300000     -34.41150000     -70.29310000
C      -43.53280000     -34.63340000     -72.02270000
C      -42.99770000     -35.84590000     -71.95700000
S      -41.31520000     -33.44170000     -68.92440000
S      -41.64520000     -36.05670000     -70.86620000
H      -43.42880000     -36.68980000     -72.56800000
