40
Properties=species:S:1:pos:R:3 #=T CELL(abcABC):=T 1.889726e+02=T 90.00000=T Traj:=T positionsangstrom=T Step:=T 0=T Bead:=T pbc="F F F"
C      -44.92820000     -36.11470000     -70.84050000
C      -45.01800000     -35.88110000     -72.21140000
C      -44.13410000     -35.07220000     -72.91830000
C      -43.20720000     -34.32400000     -72.15710000
C      -43.24210000     -34.45980000     -70.69270000
C      -44.04550000     -35.42420000     -70.07730000
H      -45.60080000     -36.81820000     -70.37460000
H      -44.15720000     -34.91720000     -74.00600000
H      -42.61880000     -33.80930000     -70.12040000
H      -44.19090000     -35.56640000     -69.03060000
C      -42.05650000     -33.46910000     -72.74450000
H      -41.65130000     -33.81880000     -73.72970000
H      -41.23290000     -33.48510000     -72.08140000
C      -45.97330000     -36.70630000     -73.02060000
H      -45.83650000     -36.57070000     -74.08530000
H      -45.84990000     -37.81960000     -72.93450000
S      -42.60250000     -31.59170000     -72.86710000
S      -47.74210000     -36.52210000     -72.45730000
C      -44.23050000     -31.60190000     -73.72100000
H      -44.21690000     -31.17130000     -74.72070000
H      -44.63720000     -32.68890000     -73.83490000
C      -48.25180000     -34.76990000     -72.56010000
H      -49.08340000     -34.78140000     -71.87120000
H      -48.74030000     -34.70090000     -73.63900000
C      -47.29730000     -33.52880000     -72.29440000
H      -46.41730000     -33.65410000     -72.91310000
H      -47.89550000     -32.65580000     -72.64020000
C      -45.28590000     -30.81410000     -72.94760000
H      -46.27790000     -31.00380000     -73.39640000
H      -45.07170000     -29.78440000     -73.07330000
C      -45.41490000     -31.04370000     -71.41130000
C      -44.58340000     -30.33700000     -70.59250000
C      -46.15510000     -32.04110000     -70.64120000
H      -43.93610000     -29.59960000     -70.94580000
C      -45.93660000     -31.85820000     -69.28730000
C      -46.98420000     -33.20010000     -70.91220000
C      -47.47050000     -33.80790000     -69.83190000
S      -44.65130000     -30.71360000     -68.88300000
S      -46.72270000     -33.14680000     -68.31200000
H      -48.18330000     -34.70510000     -69.82710000
