40
Properties=species:S:1:pos:R:3 #=T CELL(abcABC):=T 1.889726e+02=T 90.00000=T Traj:=T positionsangstrom=T Step:=T 0=T Bead:=T pbc="F F F"
C      -44.94670000     -35.92190000     -70.86980000
C      -45.09550000     -35.84320000     -72.23320000
C      -44.07350000     -35.19630000     -72.98440000
C      -43.06830000     -34.51410000     -72.35760000
C      -42.94810000     -34.51310000     -70.97720000
C      -43.91840000     -35.20330000     -70.26560000
H      -45.72870000     -36.40150000     -70.30500000
H      -43.99080000     -35.33420000     -74.06900000
H      -42.16060000     -34.02150000     -70.44810000
H      -43.93740000     -35.14750000     -69.16860000
C      -42.15280000     -33.58970000     -73.15170000
H      -42.12950000     -33.84780000     -74.18730000
H      -41.16380000     -33.62360000     -72.63540000
C      -46.25100000     -36.54840000     -73.03070000
H      -46.36560000     -36.30610000     -74.11270000
H      -46.07390000     -37.58580000     -72.91240000
S      -42.61760000     -31.80420000     -72.85160000
S      -47.99400000     -36.20820000     -72.22670000
C      -44.31960000     -31.74550000     -73.54430000
H      -44.23260000     -31.47790000     -74.63130000
H      -44.84350000     -32.69790000     -73.55070000
C      -48.53840000     -34.40460000     -72.51020000
H      -49.38340000     -34.11910000     -71.81650000
H      -49.07030000     -34.31640000     -73.41560000
C      -47.26210000     -33.55900000     -72.41050000
H      -46.43160000     -34.16160000     -72.86110000
H      -47.36770000     -32.66880000     -73.01290000
C      -45.20020000     -30.70830000     -72.83200000
H      -46.14440000     -30.59020000     -73.24780000
H      -44.63360000     -29.77900000     -72.92240000
C      -45.25130000     -31.02960000     -71.30940000
C      -44.44930000     -30.31290000     -70.38330000
C      -46.07190000     -32.03280000     -70.63800000
H      -43.82070000     -29.48220000     -70.63870000
C      -45.81080000     -32.04120000     -69.28520000
C      -46.86800000     -33.16240000     -70.99860000
C      -47.31640000     -33.91590000     -69.91580000
S      -44.74500000     -30.76910000     -68.68360000
S      -46.62150000     -33.30930000     -68.42510000
H      -47.87720000     -34.80740000     -69.90480000
