40
Properties=species:S:1:pos:R:3 #=T CELL(abcABC):=T 1.889726e+02=T 90.00000=T Traj:=T positionsangstrom=T Step:=T 0=T Bead:=T pbc="F F F"
C      -44.99460000     -35.80900000     -70.77550000
C      -45.19210000     -35.85690000     -72.19310000
C      -44.27240000     -35.15420000     -72.96950000
C      -43.09660000     -34.55350000     -72.43000000
C      -42.85890000     -34.71160000     -71.08170000
C      -43.82380000     -35.29740000     -70.25670000
H      -45.65390000     -36.32390000     -70.04720000
H      -44.55290000     -34.98020000     -74.07480000
H      -41.88120000     -34.35140000     -70.65190000
H      -43.51770000     -35.39550000     -69.22210000
C      -42.22870000     -33.77780000     -73.31150000
H      -42.22720000     -34.03610000     -74.38100000
H      -41.12220000     -33.81950000     -73.13070000
C      -46.34010000     -36.52580000     -72.94000000
H      -46.35920000     -36.21190000     -73.97600000
H      -46.21740000     -37.62300000     -72.91210000
S      -42.56780000     -31.92500000     -73.03530000
S      -47.93400000     -36.11070000     -72.21510000
C      -44.31970000     -31.84490000     -73.57360000
H      -44.29670000     -31.54230000     -74.61990000
H      -44.71200000     -32.85340000     -73.46490000
C      -48.30270000     -34.32520000     -72.86610000
H      -49.37710000     -34.15210000     -72.49870000
H      -48.27180000     -34.45030000     -73.98130000
C      -47.45700000     -33.12950000     -72.36730000
H      -46.54920000     -33.03070000     -73.00230000
H      -48.05720000     -32.21800000     -72.45460000
C      -45.15480000     -30.78080000     -72.72950000
H      -46.15690000     -30.74920000     -73.26610000
H      -44.76130000     -29.76470000     -72.94700000
C      -45.32690000     -30.89860000     -71.21160000
C      -44.57990000     -30.18470000     -70.25440000
C      -45.97030000     -32.09720000     -70.53220000
H      -43.90430000     -29.33660000     -70.52660000
C      -45.68840000     -32.15950000     -69.15230000
C      -46.95120000     -33.13950000     -70.94150000
C      -47.37890000     -33.92300000     -69.89400000
S      -44.66640000     -30.73760000     -68.61330000
S      -46.64670000     -33.37480000     -68.36560000
H      -48.22590000     -34.57230000     -69.92390000
