40
Properties=species:S:1:pos:R:3 #=T CELL(abcABC):=T 1.889726e+02=T 90.00000=T Traj:=T positionsangstrom=T Step:=T 0=T Bead:=T pbc="F F F"
C      -41.76180000     -34.58540000     -70.97450000
C      -42.04550000     -33.68530000     -69.93030000
C      -42.30580000     -32.34360000     -70.21840000
C      -42.16780000     -31.95380000     -71.51380000
C      -41.85520000     -32.82100000     -72.57130000
C      -41.67310000     -34.15760000     -72.27140000
H      -41.74010000     -35.70850000     -70.81030000
H      -42.61220000     -31.61800000     -69.45090000
H      -41.97280000     -32.46740000     -73.61210000
H      -41.55620000     -35.00350000     -73.00450000
C      -42.45740000     -30.43670000     -71.73330000
H      -42.38170000     -30.18760000     -72.72870000
H      -41.66190000     -29.92330000     -71.25020000
C      -42.22380000     -34.27040000     -68.54590000
H      -41.70590000     -35.22370000     -68.50650000
H      -41.83810000     -33.55670000     -67.76140000
S      -44.08660000     -29.84200000     -71.05520000
S      -44.03360000     -34.50330000     -68.08020000
C      -45.29550000     -30.73710000     -72.24280000
H      -45.97680000     -29.98350000     -72.63020000
H      -44.64260000     -31.09570000     -73.03560000
C      -44.85840000     -35.20020000     -69.61060000
H      -44.96210000     -36.29360000     -69.62110000
H      -44.36110000     -34.92470000     -70.54860000
C      -46.26440000     -34.50950000     -69.67760000
H      -46.86030000     -34.78320000     -68.83780000
H      -46.12650000     -33.48760000     -69.61850000
C      -46.15670000     -31.80640000     -71.53240000
H      -46.67810000     -31.35510000     -70.66350000
H      -45.48010000     -32.54300000     -71.12500000
C      -47.21690000     -32.54470000     -72.26900000
C      -48.03770000     -32.09400000     -73.23080000
C      -47.62290000     -33.90430000     -71.87200000
H      -47.74260000     -31.10550000     -73.69470000
C      -48.45140000     -34.47870000     -72.78940000
C      -47.06950000     -34.86940000     -70.85860000
C      -47.55130000     -36.10110000     -71.04440000
S      -49.09660000     -33.28220000     -73.92690000
S      -48.57340000     -36.18030000     -72.50350000
H      -47.38850000     -37.08380000     -70.61270000
