40
Properties=species:S:1:pos:R:3 #=T CELL(abcABC):=T 1.889726e+02=T 90.00000=T Traj:=T positionsangstrom=T Step:=T 0=T Bead:=T pbc="F F F"
C      -45.19160000     -35.84570000     -71.20460000
C      -45.34930000     -35.83960000     -72.59970000
C      -44.32510000     -35.20210000     -73.34480000
C      -43.13780000     -34.59510000     -72.76630000
C      -42.93350000     -34.75360000     -71.34700000
C      -43.97530000     -35.38950000     -70.60500000
H      -45.91970000     -36.27410000     -70.49230000
H      -44.63820000     -35.03140000     -74.37210000
H      -42.14690000     -34.16730000     -70.89820000
H      -43.81990000     -35.46900000     -69.53660000
C      -42.29240000     -33.62800000     -73.52640000
H      -42.38200000     -33.71600000     -74.62490000
H      -41.20450000     -33.67210000     -73.35020000
C      -46.67860000     -36.31700000     -73.13380000
H      -46.91950000     -35.90770000     -74.08710000
H      -46.62430000     -37.42620000     -73.31490000
S      -42.56510000     -31.85800000     -72.97150000
S      -48.16120000     -35.99750000     -72.04870000
C      -44.35440000     -31.67950000     -73.42660000
H      -44.37650000     -31.20260000     -74.47620000
H      -44.83530000     -32.67630000     -73.30210000
C      -48.57420000     -34.21620000     -72.52030000
H      -49.42820000     -34.05120000     -72.00810000
H      -48.87730000     -34.29750000     -73.58780000
C      -47.42510000     -33.16390000     -72.22470000
H      -46.61150000     -33.62240000     -72.67320000
H      -47.76300000     -32.15430000     -72.68730000
C      -45.09140000     -30.67310000     -72.51570000
H      -46.10770000     -30.66820000     -72.94700000
H      -44.57960000     -29.72420000     -72.66810000
C      -45.06020000     -31.08700000     -71.04840000
C      -44.07660000     -30.55550000     -70.22000000
C      -45.90570000     -32.07330000     -70.42220000
H      -43.27230000     -29.84740000     -70.38920000
C      -45.52530000     -32.22220000     -69.07500000
C      -47.01900000     -32.89700000     -70.79780000
C      -47.43720000     -33.70920000     -69.71730000
S      -44.20830000     -31.18120000     -68.60140000
S      -46.66420000     -33.26720000     -68.22560000
H      -48.26090000     -34.38260000     -69.72760000
