40
Properties=species:S:1:pos:R:3 #=T CELL(abcABC):=T 1.889726e+02=T 90.00000=T Traj:=T positionsangstrom=T Step:=T 0=T Bead:=T pbc="F F F"
C      -45.10750000     -35.90100000     -70.95410000
C      -45.41160000     -35.67220000     -72.32260000
C      -44.43760000     -35.05840000     -73.19290000
C      -43.26670000     -34.52770000     -72.64880000
C      -42.94010000     -34.84690000     -71.29130000
C      -43.82730000     -35.53950000     -70.46650000
H      -45.67950000     -36.50880000     -70.27250000
H      -44.77020000     -34.93800000     -74.24530000
H      -42.00940000     -34.42840000     -71.00870000
H      -43.47440000     -35.86110000     -69.47020000
C      -42.33090000     -33.63760000     -73.39540000
H      -42.33300000     -33.90170000     -74.44610000
H      -41.32740000     -33.78650000     -73.00040000
C      -46.66520000     -36.11760000     -73.04720000
H      -46.68580000     -35.58170000     -74.02500000
H      -46.61920000     -37.19200000     -73.15210000
S      -42.45630000     -31.75600000     -73.29640000
S      -48.28720000     -35.74480000     -72.17330000
C      -44.22380000     -31.31770000     -73.51850000
H      -44.25270000     -30.70420000     -74.45820000
H      -44.78970000     -32.27890000     -73.76520000
C      -48.57510000     -33.97330000     -72.64710000
H      -49.55770000     -33.78030000     -72.08710000
H      -48.69710000     -33.85620000     -73.66040000
C      -47.49220000     -32.99710000     -72.22210000
H      -46.59990000     -33.19000000     -72.85780000
H      -47.82450000     -32.08380000     -72.56960000
C      -45.01140000     -30.65420000     -72.37140000
H      -46.05850000     -30.67400000     -72.72600000
H      -44.64610000     -29.59430000     -72.39330000
C      -44.93860000     -31.29980000     -71.00270000
C      -43.99680000     -30.87660000     -70.15870000
C      -45.92090000     -32.16360000     -70.42350000
H      -43.22230000     -30.09250000     -70.23550000
C      -45.62240000     -32.31380000     -69.07280000
C      -47.03570000     -32.96540000     -70.81890000
C      -47.49310000     -33.74660000     -69.82410000
S      -44.22600000     -31.49930000     -68.51960000
S      -46.67900000     -33.43480000     -68.30340000
H      -48.30200000     -34.51330000     -69.90660000
