40
Properties=species:S:1:pos:R:3 #=T CELL(abcABC):=T 1.889726e+02=T 90.00000=T Traj:=T positionsangstrom=T Step:=T 0=T Bead:=T pbc="F F F"
C      -45.07350000     -35.95080000     -71.15260000
C      -45.37850000     -35.52570000     -72.42670000
C      -44.54960000     -34.74070000     -73.20020000
C      -43.35980000     -34.31530000     -72.60080000
C      -43.06950000     -34.57100000     -71.23310000
C      -43.92830000     -35.41310000     -70.52550000
H      -45.79130000     -36.56670000     -70.62880000
H      -44.67070000     -34.38460000     -74.22030000
H      -42.19100000     -34.13350000     -70.69890000
H      -43.80360000     -35.71210000     -69.52290000
C      -42.34360000     -33.60830000     -73.43080000
H      -42.21850000     -33.69980000     -74.51210000
H      -41.31380000     -33.89790000     -72.98590000
C      -46.61110000     -36.07920000     -73.08260000
H      -46.75290000     -35.67740000     -74.04100000
H      -46.53150000     -37.21860000     -73.24460000
S      -42.50270000     -31.75750000     -73.20160000
S      -48.10350000     -35.81130000     -72.18340000
C      -44.26700000     -31.61100000     -73.47040000
H      -44.43690000     -31.01430000     -74.31730000
H      -44.65340000     -32.60790000     -73.53160000
C      -48.57180000     -33.96610000     -72.61630000
H      -49.48020000     -33.81430000     -72.09860000
H      -48.80470000     -33.89840000     -73.72720000
C      -47.56100000     -32.91050000     -72.20330000
H      -46.67220000     -33.09040000     -72.83710000
H      -48.01290000     -31.82370000     -72.39540000
C      -44.98020000     -30.73390000     -72.40440000
H      -45.99780000     -30.61190000     -72.67330000
H      -44.54900000     -29.75880000     -72.28970000
C      -44.90830000     -31.29480000     -70.99110000
C      -43.94620000     -30.89580000     -70.12960000
C      -45.81940000     -32.34530000     -70.45410000
H      -43.18240000     -30.15570000     -70.36290000
C      -45.52940000     -32.52600000     -69.08480000
C      -47.13320000     -32.94770000     -70.77480000
C      -47.72570000     -33.59150000     -69.73510000
S      -44.10850000     -31.61810000     -68.55970000
S      -46.73320000     -33.48980000     -68.31090000
H      -48.69570000     -34.14370000     -69.73190000
