40
Properties=species:S:1:pos:R:3 #=T CELL(abcABC):=T 1.889726e+02=T 90.00000=T Traj:=T positionsangstrom=T Step:=T 0=T Bead:=T pbc="F F F"
C      -49.23340000     -34.11960000     -70.35410000
C      -48.85120000     -33.93980000     -71.68560000
C      -48.34580000     -32.66410000     -72.06210000
C      -48.35830000     -31.59440000     -71.18150000
C      -49.00440000     -31.74650000     -69.93270000
C      -49.29320000     -33.01160000     -69.48460000
H      -49.61240000     -35.01880000     -69.98470000
H      -47.91060000     -32.62600000     -73.07060000
H      -48.93200000     -30.83470000     -69.34860000
H      -49.53420000     -33.24410000     -68.45690000
C      -47.85860000     -30.19480000     -71.67360000
H      -47.88790000     -29.54010000     -70.88100000
H      -48.60630000     -29.87340000     -72.44680000
C      -48.89820000     -35.05220000     -72.67700000
H      -49.38700000     -35.93450000     -72.22900000
H      -49.49300000     -34.71760000     -73.58300000
S      -46.33120000     -30.14810000     -72.66070000
S      -47.20430000     -35.43610000     -73.32810000
C      -45.00630000     -30.77220000     -71.50810000
H      -44.36270000     -29.89160000     -71.26430000
H      -45.51820000     -30.91810000     -70.61010000
C      -45.98590000     -35.24450000     -71.90720000
H      -46.02660000     -36.08610000     -71.21330000
H      -46.13610000     -34.32480000     -71.31400000
C      -44.59460000     -35.28740000     -72.54220000
H      -44.49100000     -36.22870000     -73.07430000
H      -44.41550000     -34.53680000     -73.29880000
C      -44.27540000     -31.97310000     -72.10650000
H      -43.76350000     -31.57910000     -72.94390000
H      -44.96270000     -32.68470000     -72.49260000
C      -43.27700000     -32.51380000     -71.15330000
C      -42.39940000     -31.69550000     -70.49750000
C      -42.98610000     -33.93270000     -70.91830000
H      -42.32600000     -30.62960000     -70.59230000
C      -41.89490000     -34.20060000     -70.10620000
C      -43.48250000     -35.17910000     -71.52860000
C      -42.88460000     -36.30080000     -71.10020000
S      -41.28580000     -32.70530000     -69.51970000
S      -41.59220000     -35.93180000     -69.89640000
H      -43.06830000     -37.35130000     -71.39100000
