40
Properties=species:S:1:pos:R:3 #=T CELL(abcABC):=T 1.889726e+02=T 90.00000=T Traj:=T positionsangstrom=T Step:=T 0=T Bead:=T pbc="F F F"
C      -41.77600000     -34.55660000     -70.96420000
C      -42.09890000     -33.73210000     -69.88760000
C      -42.26890000     -32.34540000     -70.11820000
C      -42.23840000     -31.86300000     -71.40990000
C      -41.87190000     -32.66670000     -72.51580000
C      -41.70360000     -34.05020000     -72.30100000
H      -41.64440000     -35.65790000     -70.78510000
H      -42.54190000     -31.75980000     -69.23890000
H      -41.56590000     -32.19180000     -73.50000000
H      -41.43780000     -34.74960000     -73.12660000
C      -42.50790000     -30.45310000     -71.63040000
H      -42.46640000     -30.08800000     -72.74500000
H      -41.75060000     -29.81940000     -71.13430000
C      -42.25010000     -34.31010000     -68.55770000
H      -41.91200000     -35.33100000     -68.52840000
H      -41.74750000     -33.70070000     -67.73780000
S      -44.15290000     -29.93060000     -71.00040000
S      -44.00620000     -34.53240000     -67.96410000
C      -45.39890000     -30.66030000     -72.26430000
H      -46.09360000     -29.85700000     -72.53380000
H      -44.80120000     -31.04900000     -73.12990000
C      -44.97420000     -35.00180000     -69.48730000
H      -44.86600000     -36.09730000     -69.42760000
H      -44.29330000     -34.64650000     -70.23340000
C      -46.42930000     -34.54980000     -69.58330000
H      -47.08400000     -35.12100000     -68.78030000
H      -46.51750000     -33.47920000     -69.44570000
C      -46.12830000     -31.80190000     -71.52660000
H      -46.75340000     -31.30060000     -70.75510000
H      -45.48960000     -32.46320000     -70.95960000
C      -47.07110000     -32.64910000     -72.36050000
C      -47.85860000     -32.13880000     -73.36070000
C      -47.47180000     -33.92530000     -71.95660000
H      -47.79200000     -31.10920000     -73.74900000
C      -48.32360000     -34.50690000     -72.93480000
C      -47.02650000     -34.87860000     -70.94240000
C      -47.66110000     -36.09990000     -71.12770000
S      -48.91330000     -33.36280000     -74.05730000
S      -48.68850000     -36.12320000     -72.55700000
H      -47.34770000     -37.12020000     -70.78090000
