40
Properties=species:S:1:pos:R:3 #=T CELL(abcABC):=T 1.889726e+02=T 90.00000=T Traj:=T positionsangstrom=T Step:=T 0=T Bead:=T pbc="F F F"
C      -48.98840000     -34.07740000     -69.98740000
C      -48.59440000     -34.05200000     -71.34150000
C      -48.30220000     -32.77380000     -71.96220000
C      -48.40680000     -31.58980000     -71.26330000
C      -48.79050000     -31.69240000     -69.91160000
C      -49.19940000     -32.87490000     -69.29690000
H      -49.39350000     -35.00230000     -69.56810000
H      -48.11060000     -32.76280000     -73.04310000
H      -48.82220000     -30.74500000     -69.25540000
H      -49.58150000     -32.86890000     -68.25860000
C      -47.98000000     -30.24450000     -71.76540000
H      -47.80050000     -29.63580000     -70.89860000
H      -48.81990000     -29.77390000     -72.35880000
C      -48.65810000     -35.28710000     -72.13830000
H      -48.72240000     -36.15770000     -71.48090000
H      -49.52980000     -35.17690000     -72.77790000
S      -46.55090000     -30.23820000     -72.83800000
S      -47.20630000     -35.44750000     -73.28590000
C      -45.16310000     -30.74260000     -71.62230000
H      -44.67510000     -29.83760000     -71.45510000
H      -45.62970000     -30.83690000     -70.67590000
C      -45.91440000     -35.51050000     -71.96990000
H      -45.82670000     -36.48070000     -71.42110000
H      -46.14660000     -34.63210000     -71.29420000
C      -44.56000000     -35.33490000     -72.67980000
H      -44.38000000     -36.22600000     -73.26230000
H      -44.66170000     -34.54330000     -73.45110000
C      -44.43830000     -31.99720000     -72.11110000
H      -44.00470000     -31.82770000     -73.08650000
H      -45.20880000     -32.71080000     -72.28030000
C      -43.41060000     -32.55730000     -71.16040000
C      -42.65520000     -31.71000000     -70.40350000
C      -42.95640000     -33.93830000     -71.11990000
H      -42.74830000     -30.66420000     -70.26560000
C      -41.88750000     -34.07730000     -70.22630000
C      -43.43990000     -35.15190000     -71.66050000
C      -42.73290000     -36.23770000     -71.13880000
S      -41.44880000     -32.54290000     -69.48570000
S      -41.39830000     -35.79770000     -70.10090000
H      -42.87510000     -37.25100000     -71.50490000
