40
Properties=species:S:1:pos:R:3 #=T CELL(abcABC):=T 1.889726e+02=T 90.00000=T Traj:=T positionsangstrom=T Step:=T 0=T Bead:=T pbc="F F F"
C      -48.61930000     -33.91690000     -69.66400000
C      -48.49060000     -34.03380000     -71.07900000
C      -48.35220000     -32.85590000     -71.85690000
C      -48.45900000     -31.59350000     -71.27310000
C      -48.59750000     -31.50650000     -69.85130000
C      -48.64000000     -32.69070000     -69.03450000
H      -48.74230000     -34.82560000     -69.08950000
H      -48.18900000     -33.00600000     -72.95800000
H      -48.66500000     -30.56650000     -69.34420000
H      -48.78850000     -32.71870000     -67.94600000
C      -48.38270000     -30.30430000     -72.05920000
H      -48.42570000     -29.40570000     -71.42210000
H      -49.14330000     -30.18220000     -72.77110000
C      -48.49790000     -35.34990000     -71.68520000
H      -48.31830000     -36.13610000     -70.94150000
H      -49.49630000     -35.44180000     -72.16550000
S      -46.74290000     -30.16340000     -72.98560000
S      -47.25420000     -35.65640000     -73.07690000
C      -45.42650000     -30.72630000     -71.83960000
H      -44.76620000     -29.87830000     -71.92390000
H      -45.79410000     -30.53940000     -70.81680000
C      -45.73840000     -35.87790000     -72.06720000
H      -45.72820000     -36.89030000     -71.78750000
H      -45.78460000     -35.24430000     -71.20670000
C      -44.41710000     -35.56390000     -72.81860000
H      -44.19750000     -36.39250000     -73.48550000
H      -44.59780000     -34.71690000     -73.46090000
C      -44.73240000     -32.08270000     -72.06590000
H      -44.14410000     -31.96610000     -73.02320000
H      -45.50060000     -32.91970000     -72.22670000
C      -43.62950000     -32.57270000     -71.09780000
C      -43.00170000     -31.71920000     -70.24060000
C      -42.98500000     -33.88530000     -71.24510000
H      -43.34470000     -30.70570000     -69.90970000
C      -41.90360000     -34.00150000     -70.36530000
C      -43.26510000     -35.21710000     -71.87890000
C      -42.39430000     -36.17110000     -71.40260000
S      -41.62920000     -32.45620000     -69.45100000
S      -41.21280000     -35.61730000     -70.29250000
H      -42.33530000     -37.21500000     -71.61990000
