40
Properties=species:S:1:pos:R:3 #=T CELL(abcABC):=T 1.889726e+02=T 90.00000=T Traj:=T positionsangstrom=T Step:=T 0=T Bead:=T pbc="F F F"
C      -48.43800000     -33.84810000     -69.65510000
C      -48.45890000     -33.99370000     -71.06120000
C      -48.46710000     -32.86520000     -71.83310000
C      -48.44480000     -31.62240000     -71.24290000
C      -48.51930000     -31.45340000     -69.83410000
C      -48.47880000     -32.60640000     -69.06570000
H      -48.24980000     -34.78200000     -69.08450000
H      -48.41450000     -33.03730000     -72.85260000
H      -48.56690000     -30.38440000     -69.46190000
H      -48.42470000     -32.52880000     -68.00230000
C      -48.30560000     -30.39560000     -72.14020000
H      -48.42920000     -29.51280000     -71.56260000
H      -49.12570000     -30.44840000     -73.00450000
C      -48.52650000     -35.35770000     -71.73790000
H      -48.42400000     -36.16620000     -71.01050000
H      -49.50630000     -35.48640000     -72.13660000
S      -46.66200000     -30.35810000     -73.03750000
S      -47.28830000     -35.67040000     -73.01940000
C      -45.42870000     -30.85820000     -71.69830000
H      -44.57370000     -30.23080000     -71.78890000
H      -45.91720000     -30.85080000     -70.70190000
C      -45.73500000     -35.70670000     -71.97070000
H      -45.75060000     -36.74340000     -71.51320000
H      -45.92980000     -35.09830000     -71.05300000
C      -44.45760000     -35.41680000     -72.76750000
H      -44.15220000     -36.23430000     -73.47020000
H      -44.64000000     -34.46230000     -73.32210000
C      -44.94170000     -32.28170000     -71.94720000
H      -44.77060000     -32.45220000     -73.01830000
H      -45.78080000     -32.94870000     -71.80200000
C      -43.73540000     -32.59140000     -71.07170000
C      -42.97000000     -31.63950000     -70.41880000
C      -43.09630000     -33.91510000     -71.13560000
H      -43.19280000     -30.63660000     -70.13530000
C      -41.97370000     -33.98740000     -70.29090000
C      -43.30130000     -35.17810000     -71.88390000
C      -42.35080000     -36.10640000     -71.57540000
S      -41.71290000     -32.47600000     -69.41280000
S      -41.13710000     -35.46960000     -70.41850000
H      -42.19760000     -37.09850000     -71.88050000
