40
Properties=species:S:1:pos:R:3 #=T CELL(abcABC):=T 1.889726e+02=T 90.00000=T Traj:=T positionsangstrom=T Step:=T 0=T Bead:=T pbc="F F F"
C      -48.22770000     -33.95770000     -69.68580000
C      -48.50320000     -34.11730000     -71.04650000
C      -48.58290000     -32.97670000     -71.90460000
C      -48.28260000     -31.73840000     -71.31220000
C      -48.15700000     -31.60060000     -69.93980000
C      -48.03170000     -32.67340000     -69.09200000
H      -48.16490000     -34.86370000     -69.14320000
H      -48.68400000     -33.00230000     -73.02120000
H      -48.23680000     -30.65060000     -69.60400000
H      -47.81400000     -32.49450000     -67.99240000
C      -48.30430000     -30.50990000     -72.17100000
H      -48.41220000     -29.64170000     -71.55570000
H      -49.13580000     -30.47740000     -72.76770000
C      -48.67150000     -35.54950000     -71.65760000
H      -48.69410000     -36.23040000     -70.81510000
H      -49.66790000     -35.63260000     -72.18580000
S      -46.78340000     -30.33010000     -73.28980000
S      -47.31610000     -35.93940000     -72.86650000
C      -45.26830000     -30.67580000     -72.18640000
H      -44.47290000     -30.32080000     -72.86160000
H      -45.28220000     -29.96650000     -71.37430000
C      -45.77220000     -35.74580000     -71.83370000
H      -45.65780000     -36.68730000     -71.32340000
H      -45.95530000     -34.81130000     -71.17370000
C      -44.49830000     -35.49230000     -72.68950000
H      -44.20590000     -36.37200000     -73.19030000
H      -44.63600000     -34.77200000     -73.49280000
C      -45.15590000     -32.17570000     -71.82160000
H      -45.32760000     -32.69630000     -72.79870000
H      -46.03010000     -32.29910000     -71.12130000
C      -43.84000000     -32.52940000     -71.06320000
C      -43.23940000     -31.68530000     -70.09420000
C      -43.13870000     -33.80460000     -71.10210000
H      -43.45050000     -30.62320000     -69.88870000
C      -41.97620000     -33.83070000     -70.29840000
C      -43.31330000     -35.07000000     -71.81200000
C      -42.32190000     -35.97700000     -71.44500000
S      -41.81080000     -32.39940000     -69.26640000
S      -41.02200000     -35.21590000     -70.52110000
H      -42.12720000     -36.98830000     -71.80310000
