40
Properties=species:S:1:pos:R:3 #=T CELL(abcABC):=T 1.889726e+02=T 90.00000=T Traj:=T positionsangstrom=T Step:=T 0=T Bead:=T pbc="F F F"
C      -44.43480000     -36.94520000     -68.70240000
C      -44.27700000     -35.56070000     -68.48830000
C      -45.42960000     -34.73640000     -68.41120000
C      -46.74760000     -35.21980000     -68.47070000
C      -46.89090000     -36.60490000     -68.68320000
C      -45.72590000     -37.42540000     -68.80390000
H      -43.54150000     -37.52680000     -68.90270000
H      -45.22630000     -33.67050000     -68.28280000
H      -47.87650000     -37.02900000     -68.97290000
H      -45.95940000     -38.44940000     -69.17750000
C      -47.94460000     -34.29730000     -68.36640000
H      -47.62170000     -33.45490000     -67.84530000
H      -48.74980000     -34.70720000     -67.73900000
C      -42.89660000     -34.98440000     -68.61340000
H      -42.70920000     -34.36500000     -67.72930000
H      -42.25630000     -35.87250000     -68.70120000
S      -48.82940000     -34.02530000     -70.02370000
S      -42.48210000     -33.92400000     -70.14370000
C      -47.42650000     -32.99060000     -70.86510000
H      -47.56090000     -31.97480000     -70.56620000
H      -46.58620000     -33.52010000     -70.44340000
C      -43.05540000     -34.96140000     -71.53720000
H      -43.41970000     -35.91820000     -71.09900000
H      -42.20750000     -35.12590000     -72.19980000
C      -44.19070000     -34.27230000     -72.32820000
H      -44.39440000     -34.97510000     -73.13350000
H      -45.11790000     -34.34920000     -71.66210000
C      -47.53160000     -33.13760000     -72.33960000
H      -48.54780000     -32.85380000     -72.70870000
H      -47.14830000     -34.09110000     -72.68720000
C      -46.60790000     -32.02440000     -72.96280000
C      -47.18190000     -30.96000000     -73.47370000
C      -45.18740000     -31.99600000     -73.21260000
H      -48.23300000     -30.78200000     -73.41560000
C      -44.78240000     -30.83790000     -73.89920000
C      -44.06940000     -32.88560000     -72.83450000
C      -42.88320000     -32.43250000     -73.38150000
S      -46.05840000     -29.74550000     -74.18760000
S      -43.09870000     -30.91140000     -74.30510000
H      -41.88150000     -32.86900000     -73.32400000
