40
Properties=species:S:1:pos:R:3 #=T CELL(abcABC):=T 1.889726e+02=T 90.00000=T Traj:=T positionsangstrom=T Step:=T 0=T Bead:=T pbc="F F F"
C      -47.98210000     -34.00520000     -69.68240000
C      -48.43320000     -34.14890000     -71.00390000
C      -48.54320000     -33.02480000     -71.78580000
C      -48.23770000     -31.74160000     -71.30980000
C      -47.91580000     -31.62230000     -69.93900000
C      -47.66790000     -32.73000000     -69.17990000
H      -47.85620000     -34.81050000     -68.97130000
H      -48.87600000     -33.28850000     -72.78450000
H      -47.86470000     -30.56650000     -69.56250000
H      -47.23040000     -32.57640000     -68.19500000
C      -48.33210000     -30.47040000     -72.04680000
H      -48.26940000     -29.56570000     -71.48930000
H      -49.31710000     -30.43670000     -72.63390000
C      -48.57590000     -35.54600000     -71.48890000
H      -48.61270000     -36.19880000     -70.65810000
H      -49.54590000     -35.61220000     -72.03040000
S      -46.99730000     -30.49770000     -73.34560000
S      -47.25510000     -36.10150000     -72.65620000
C      -45.38470000     -30.88380000     -72.45450000
H      -44.64500000     -30.35310000     -73.08560000
H      -45.52470000     -30.25800000     -71.63790000
C      -45.65750000     -35.92350000     -71.73040000
H      -45.31260000     -36.79190000     -71.09750000
H      -45.88800000     -35.03890000     -71.13560000
C      -44.43150000     -35.68340000     -72.64170000
H      -44.08070000     -36.66950000     -73.06430000
H      -44.69090000     -34.96890000     -73.44670000
C      -45.15310000     -32.35910000     -72.13950000
H      -45.02200000     -33.00130000     -73.08340000
H      -46.12490000     -32.68210000     -71.69360000
C      -43.94530000     -32.53860000     -71.20410000
C      -43.46670000     -31.52870000     -70.37450000
C      -43.19730000     -33.79830000     -71.09010000
H      -43.71810000     -30.46030000     -70.40750000
C      -42.04880000     -33.60580000     -70.30080000
C      -43.29270000     -35.13430000     -71.69330000
C      -42.17610000     -35.88540000     -71.40780000
S      -42.02230000     -32.03540000     -69.41040000
S      -41.01890000     -35.00520000     -70.39270000
H      -41.92860000     -36.84720000     -71.76890000
