40
Properties=species:S:1:pos:R:3 #=T CELL(abcABC):=T 1.889726e+02=T 90.00000=T Traj:=T positionsangstrom=T Step:=T 0=T Bead:=T pbc="F F F"
C      -48.26580000     -34.21230000     -69.43970000
C      -48.40030000     -34.45460000     -70.82290000
C      -48.49560000     -33.33170000     -71.65080000
C      -48.30080000     -32.02150000     -71.16470000
C      -48.05910000     -31.86520000     -69.78210000
C      -47.95350000     -32.97930000     -68.95690000
H      -48.31540000     -35.09720000     -68.77620000
H      -48.55970000     -33.33280000     -72.70110000
H      -47.75420000     -30.91490000     -69.29360000
H      -47.75580000     -32.82330000     -67.92900000
C      -48.39380000     -30.72070000     -71.94810000
H      -48.30350000     -29.97130000     -71.28910000
H      -49.40930000     -30.61770000     -72.35360000
C      -48.58450000     -35.87800000     -71.27330000
H      -48.55620000     -36.54050000     -70.43690000
H      -49.47120000     -36.14460000     -71.83220000
S      -47.15670000     -30.63440000     -73.24590000
S      -47.12650000     -36.40770000     -72.46770000
C      -45.62390000     -30.63460000     -72.17120000
H      -45.22110000     -29.71590000     -72.55230000
H      -45.99160000     -30.54340000     -71.16550000
C      -45.74990000     -35.71570000     -71.58230000
H      -45.40880000     -36.45380000     -70.92140000
H      -46.03150000     -34.81140000     -70.94850000
C      -44.59400000     -35.27050000     -72.52340000
H      -44.51690000     -36.11120000     -73.18150000
H      -44.88990000     -34.45920000     -73.13090000
C      -44.81120000     -31.90470000     -72.45610000
H      -44.56610000     -31.88340000     -73.48550000
H      -45.44150000     -32.77730000     -72.38300000
C      -43.61030000     -32.16360000     -71.59510000
C      -43.01070000     -31.21290000     -70.85000000
C      -43.08430000     -33.50980000     -71.39140000
H      -43.26120000     -30.11110000     -70.88960000
C      -41.99330000     -33.46940000     -70.55340000
C      -43.39110000     -34.88130000     -71.73430000
C      -42.43160000     -35.80250000     -71.31500000
S      -41.61520000     -31.82590000     -69.99320000
S      -41.23450000     -35.02760000     -70.25770000
H      -42.44630000     -36.85170000     -71.52290000
