40
Properties=species:S:1:pos:R:3 #=T CELL(abcABC):=T 1.889726e+02=T 90.00000=T Traj:=T positionsangstrom=T Step:=T 0=T Bead:=T pbc="F F F"
C      -48.23800000     -34.37840000     -69.37270000
C      -48.51010000     -34.47570000     -70.75710000
C      -48.70760000     -33.34090000     -71.49280000
C      -48.62240000     -32.08840000     -70.92480000
C      -48.45600000     -31.98780000     -69.51270000
C      -48.34580000     -33.15600000     -68.70180000
H      -48.24160000     -35.22970000     -68.72460000
H      -48.83600000     -33.49950000     -72.60650000
H      -48.48750000     -30.99950000     -69.04600000
H      -48.13390000     -33.11420000     -67.61950000
C      -48.72180000     -30.95050000     -71.95120000
H      -48.68190000     -29.99110000     -71.43070000
H      -49.76440000     -30.99980000     -72.29100000
C      -48.58460000     -35.81740000     -71.41550000
H      -48.60250000     -36.66610000     -70.81890000
H      -49.38600000     -35.88400000     -72.13160000
S      -47.46240000     -30.94710000     -73.23370000
S      -47.04790000     -36.09190000     -72.51310000
C      -45.79990000     -30.90810000     -72.29370000
H      -45.05870000     -30.48580000     -73.01580000
H      -45.99960000     -30.17440000     -71.44200000
C      -45.55510000     -35.76380000     -71.34450000
H      -45.34210000     -36.60580000     -70.60940000
H      -45.88180000     -34.87940000     -70.80280000
C      -44.30740000     -35.54360000     -72.19000000
H      -43.99600000     -36.51660000     -72.55360000
H      -44.51760000     -34.98000000     -73.09350000
C      -45.25310000     -32.29550000     -71.84970000
H      -45.49720000     -32.96160000     -72.66270000
H      -45.99370000     -32.71760000     -71.07180000
C      -43.81230000     -32.37910000     -71.46870000
C      -43.09170000     -31.20710000     -71.24240000
C      -42.91730000     -33.49650000     -71.36940000
H      -43.43920000     -30.25890000     -71.35600000
C      -41.62200000     -33.19950000     -70.88870000
C      -43.14330000     -34.90320000     -71.43910000
C      -42.04820000     -35.68530000     -70.99740000
S      -41.41640000     -31.46440000     -70.69340000
S      -40.77880000     -34.70090000     -70.35620000
H      -41.92920000     -36.73930000     -70.86910000
