40
Properties=species:S:1:pos:R:3 #=T CELL(abcABC):=T 1.889726e+02=T 90.00000=T Traj:=T positionsangstrom=T Step:=T 0=T Bead:=T pbc="F F F"
C      -48.29150000     -34.38360000     -69.04620000
C      -48.39750000     -34.64800000     -70.41320000
C      -48.57820000     -33.55370000     -71.30120000
C      -48.57210000     -32.24550000     -70.80350000
C      -48.36640000     -31.96750000     -69.43110000
C      -48.20870000     -33.08090000     -68.55080000
H      -48.48020000     -35.31470000     -68.45130000
H      -48.75560000     -33.68950000     -72.32440000
H      -48.25850000     -30.92460000     -69.02010000
H      -48.07310000     -32.83740000     -67.46600000
C      -48.66160000     -31.11350000     -71.84410000
H      -48.51730000     -30.20320000     -71.20590000
H      -49.72310000     -31.02490000     -72.15180000
C      -48.41080000     -36.01050000     -70.90760000
H      -48.29800000     -36.69970000     -69.97650000
H      -49.36850000     -36.24950000     -71.45980000
S      -47.54980000     -31.03580000     -73.27190000
S      -47.00420000     -36.40820000     -72.10340000
C      -45.91810000     -30.87260000     -72.48290000
H      -45.34520000     -30.19850000     -73.10430000
H      -46.03130000     -30.47390000     -71.46000000
C      -45.55130000     -35.57290000     -71.23720000
H      -45.38980000     -36.14320000     -70.32890000
H      -45.76570000     -34.56790000     -70.95220000
C      -44.32630000     -35.75510000     -72.14490000
H      -44.00810000     -36.82240000     -72.03670000
H      -44.74880000     -35.41490000     -73.13920000
C      -45.24850000     -32.24460000     -72.38120000
H      -45.31530000     -32.79330000     -73.30550000
H      -45.89130000     -32.82220000     -71.73910000
C      -43.81280000     -32.15780000     -71.77930000
C      -43.19650000     -31.04820000     -71.26290000
C      -42.97770000     -33.32660000     -71.62910000
H      -43.54570000     -30.01770000     -71.41560000
C      -41.71180000     -33.05710000     -71.05430000
C      -43.15440000     -34.79480000     -71.73630000
C      -42.02210000     -35.46440000     -71.37750000
S      -41.59410000     -31.38320000     -70.57750000
S      -40.68910000     -34.48050000     -70.81860000
H      -42.01840000     -36.55060000     -71.36100000
