40
Properties=species:S:1:pos:R:3 #=T CELL(abcABC):=T 1.889726e+02=T 90.00000=T Traj:=T positionsangstrom=T Step:=T 0=T Bead:=T pbc="F F F"
C      -45.57620000     -35.39580000     -72.43420000
C      -45.48280000     -34.35460000     -73.40370000
C      -44.24440000     -33.69880000     -73.49360000
C      -43.22170000     -33.92770000     -72.51920000
C      -43.38060000     -34.91620000     -71.55380000
C      -44.55410000     -35.62700000     -71.52700000
H      -46.54120000     -35.97240000     -72.39460000
H      -44.05840000     -33.00310000     -74.35790000
H      -42.58870000     -34.99210000     -70.75900000
H      -44.69200000     -36.50730000     -70.93280000
C      -42.02800000     -33.06200000     -72.69400000
H      -41.94440000     -32.69470000     -73.69880000
H      -41.04760000     -33.45400000     -72.48050000
C      -46.50370000     -34.26480000     -74.49750000
H      -46.23260000     -33.41160000     -75.10970000
H      -46.27190000     -35.20210000     -75.05820000
S      -42.08410000     -31.49860000     -71.50680000
S      -48.21660000     -34.11050000     -73.83910000
C      -43.76660000     -30.85470000     -71.85380000
H      -43.63510000     -29.89810000     -72.35210000
H      -44.28040000     -31.49080000     -72.62860000
C      -48.30300000     -32.44570000     -73.00010000
H      -49.23010000     -32.54320000     -72.41610000
H      -48.55180000     -31.69600000     -73.79580000
C      -47.25110000     -31.96430000     -72.02140000
H      -46.32070000     -31.73610000     -72.52490000
H      -47.65230000     -31.12460000     -71.40370000
C      -44.48500000     -30.67320000     -70.57660000
H      -45.49300000     -30.17140000     -70.70460000
H      -43.87880000     -30.04780000     -69.83960000
C      -44.72190000     -32.02390000     -69.88280000
C      -44.00460000     -32.27080000     -68.76130000
C      -45.78370000     -32.94310000     -70.09900000
H      -43.11010000     -31.62250000     -68.53900000
C      -45.78750000     -33.94960000     -69.09040000
C      -46.93510000     -33.02690000     -70.94820000
C      -47.70310000     -34.12300000     -70.69310000
S      -44.58500000     -33.64250000     -67.86400000
S      -47.05820000     -35.11970000     -69.33670000
H      -48.64570000     -34.49110000     -71.12400000
