40
Properties=species:S:1:pos:R:3 #=T CELL(abcABC):=T 1.889726e+02=T 90.00000=T Traj:=T positionsangstrom=T Step:=T 0=T Bead:=T pbc="F F F"
C      -45.34320000     -35.44540000     -73.17170000
C      -45.18390000     -34.24960000     -73.81610000
C      -44.01040000     -33.50980000     -73.60940000
C      -43.08850000     -33.88720000     -72.60630000
C      -43.28200000     -35.01520000     -71.83530000
C      -44.42300000     -35.82740000     -72.09180000
H      -46.23560000     -35.98070000     -73.24030000
H      -43.88200000     -32.54730000     -74.13390000
H      -42.61450000     -35.20930000     -70.99520000
H      -44.68040000     -36.81620000     -71.70800000
C      -41.81710000     -33.12200000     -72.34570000
H      -41.45440000     -32.59610000     -73.27280000
H      -40.95680000     -33.69460000     -72.01790000
C      -46.39940000     -33.72110000     -74.72170000
H      -46.17680000     -32.69180000     -74.84660000
H      -46.42910000     -34.22480000     -75.76700000
S      -41.99180000     -31.71770000     -71.13520000
S      -48.04100000     -33.99450000     -73.90520000
C      -43.59840000     -30.92950000     -71.58880000
H      -43.31820000     -29.97810000     -72.01630000
H      -44.05140000     -31.58360000     -72.29810000
C      -48.26740000     -32.39360000     -73.09790000
H      -49.22980000     -32.41460000     -72.56820000
H      -48.37520000     -31.67300000     -73.90860000
C      -47.11860000     -32.12730000     -72.15580000
H      -46.17040000     -32.28270000     -72.70710000
H      -47.29950000     -31.08690000     -71.76500000
C      -44.51560000     -30.66530000     -70.39510000
H      -45.32800000     -30.08330000     -70.75070000
H      -44.00810000     -30.12500000     -69.63460000
C      -44.93790000     -31.95830000     -69.73120000
C      -44.22270000     -32.29540000     -68.54990000
C      -45.97890000     -32.98660000     -69.90660000
H      -43.24480000     -31.97710000     -68.25170000
C      -46.06540000     -33.95930000     -68.95400000
C      -47.01810000     -33.04560000     -70.94570000
C      -47.90930000     -34.07830000     -70.69630000
S      -44.65890000     -33.85240000     -67.88710000
S      -47.52310000     -34.94420000     -69.14800000
H      -48.69090000     -34.35600000     -71.28970000
