40
Properties=species:S:1:pos:R:3 #=T CELL(abcABC):=T 1.889726e+02=T 90.00000=T Traj:=T positionsangstrom=T Step:=T 0=T Bead:=T pbc="F F F"
C      -47.47320000     -34.55590000     -69.12510000
C      -48.13130000     -34.83020000     -70.36700000
C      -48.58380000     -33.75430000     -71.07680000
C      -48.32540000     -32.38000000     -70.67480000
C      -47.70150000     -32.18650000     -69.42480000
C      -47.26610000     -33.28990000     -68.64430000
H      -47.13380000     -35.37240000     -68.49890000
H      -48.99750000     -33.88660000     -72.00060000
H      -47.59020000     -31.22700000     -68.90920000
H      -46.95150000     -33.08030000     -67.57670000
C      -48.83970000     -31.10010000     -71.41890000
H      -48.78620000     -30.20710000     -70.88620000
H      -49.85490000     -31.22470000     -71.80700000
C      -48.29860000     -36.26700000     -70.79350000
H      -48.48660000     -36.98230000     -70.10370000
H      -49.09220000     -36.31970000     -71.51060000
S      -47.95100000     -30.88730000     -73.03350000
S      -46.80070000     -36.87830000     -71.86490000
C      -46.09660000     -30.86850000     -72.69600000
H      -45.69670000     -30.35940000     -73.56940000
H      -45.90200000     -30.20990000     -71.98220000
C      -45.32680000     -35.90230000     -71.28550000
H      -44.71540000     -36.40130000     -70.61900000
H      -45.71660000     -34.98190000     -70.73380000
C      -44.32360000     -35.56100000     -72.40050000
H      -43.91710000     -36.44600000     -72.92720000
H      -44.74570000     -34.95680000     -73.22200000
C      -45.47940000     -32.24260000     -72.39320000
H      -45.37080000     -32.88910000     -73.24080000
H      -46.17530000     -32.70200000     -71.66650000
C      -44.11740000     -32.12830000     -71.78750000
C      -43.59730000     -30.94530000     -71.34330000
C      -43.16480000     -33.22430000     -71.68520000
H      -44.09640000     -29.98200000     -71.14360000
C      -41.94060000     -32.80000000     -71.20980000
C      -43.22380000     -34.68910000     -71.82560000
C      -42.04150000     -35.22560000     -71.43040000
S      -41.89640000     -31.13400000     -70.84410000
S      -40.81840000     -34.13990000     -70.92570000
H      -41.85350000     -36.26340000     -71.42060000
