40
Properties=species:S:1:pos:R:3 #=T CELL(abcABC):=T 1.889726e+02=T 90.00000=T Traj:=T positionsangstrom=T Step:=T 0=T Bead:=T pbc="F F F"
C      -47.39680000     -34.60120000     -68.98230000
C      -47.97120000     -34.82780000     -70.20680000
C      -48.38610000     -33.74360000     -71.01520000
C      -48.38010000     -32.41230000     -70.62540000
C      -47.86640000     -32.21620000     -69.26540000
C      -47.38270000     -33.25290000     -68.53680000
H      -47.01540000     -35.35530000     -68.30380000
H      -48.80930000     -34.06670000     -71.93150000
H      -47.82410000     -31.23620000     -68.84860000
H      -46.93820000     -33.07200000     -67.59480000
C      -48.85240000     -31.23780000     -71.39900000
H      -48.82250000     -30.31870000     -70.73150000
H      -49.92800000     -31.35070000     -71.54030000
C      -48.09170000     -36.25380000     -70.78110000
H      -48.01950000     -36.96090000     -69.89660000
H      -49.09830000     -36.23060000     -71.22350000
S      -47.99640000     -30.96970000     -72.98830000
S      -46.90000000     -36.72000000     -72.06370000
C      -46.30010000     -30.83020000     -72.27200000
H      -45.66630000     -30.27120000     -73.00220000
H      -46.33240000     -30.51800000     -71.17630000
C      -45.32970000     -35.99620000     -71.33540000
H      -44.96110000     -36.87030000     -70.73830000
H      -45.56240000     -35.16480000     -70.67860000
C      -44.34510000     -35.50270000     -72.40220000
H      -43.95330000     -36.41620000     -72.74640000
H      -44.96200000     -34.95530000     -73.14070000
C      -45.54440000     -32.15740000     -72.24810000
H      -45.67130000     -32.67550000     -73.25420000
H      -45.96260000     -32.86230000     -71.50140000
C      -44.09210000     -32.10400000     -71.89260000
C      -43.44670000     -30.93670000     -71.62300000
C      -43.15820000     -33.21120000     -71.66020000
H      -43.75470000     -29.85390000     -71.69980000
C      -41.94220000     -32.84790000     -71.13660000
C      -43.23740000     -34.66770000     -71.88810000
C      -42.00910000     -35.25320000     -71.67980000
S      -41.82780000     -31.14960000     -70.90610000
S      -40.81250000     -34.13040000     -71.01040000
H      -41.94490000     -36.31810000     -71.79340000
