40
Properties=species:S:1:pos:R:3 #=T CELL(abcABC):=T 1.889726e+02=T 90.00000=T Traj:=T positionsangstrom=T Step:=T 0=T Bead:=T pbc="F F F"
C      -47.59380000     -34.54130000     -68.83460000
C      -48.00090000     -34.84060000     -70.11850000
C      -48.47810000     -33.82160000     -70.96140000
C      -48.55080000     -32.46350000     -70.52390000
C      -47.93790000     -32.20260000     -69.28430000
C      -47.48870000     -33.21460000     -68.44420000
H      -47.28360000     -35.36350000     -68.22390000
H      -48.77800000     -34.09850000     -72.01420000
H      -47.90490000     -31.16260000     -68.93610000
H      -47.02710000     -33.00800000     -67.56970000
C      -49.10210000     -31.50490000     -71.50380000
H      -49.26700000     -30.52080000     -71.01810000
H      -49.99500000     -31.89250000     -71.96320000
C      -48.02320000     -36.28670000     -70.62650000
H      -47.64550000     -36.92160000     -69.84030000
H      -48.98980000     -36.65760000     -70.88340000
S      -47.96220000     -31.10510000     -72.87200000
S      -46.92020000     -36.42880000     -72.11050000
C      -46.25530000     -30.93710000     -72.11300000
H      -45.85540000     -30.12840000     -72.63640000
H      -46.46150000     -30.59110000     -71.08150000
C      -45.28080000     -35.91960000     -71.46030000
H      -44.77840000     -36.85260000     -71.04850000
H      -45.32410000     -35.30000000     -70.60770000
C      -44.43900000     -35.28260000     -72.53350000
H      -44.13600000     -35.98580000     -73.38920000
H      -44.97330000     -34.49630000     -73.04350000
C      -45.45820000     -32.15730000     -72.36000000
H      -45.44310000     -32.33450000     -73.40100000
H      -45.98060000     -33.03580000     -71.93910000
C      -44.07640000     -32.11210000     -71.71250000
C      -43.40080000     -30.94610000     -71.35580000
C      -43.16250000     -33.20480000     -71.63700000
H      -43.83080000     -29.92880000     -71.40890000
C      -41.87550000     -32.89320000     -71.24350000
C      -43.20650000     -34.61720000     -71.89950000
C      -41.99310000     -35.31340000     -71.69650000
S      -41.66500000     -31.16910000     -71.07170000
S      -40.75750000     -34.18540000     -71.11300000
H      -41.88060000     -36.34360000     -72.10780000
