40
Properties=species:S:1:pos:R:3 #=T CELL(abcABC):=T 1.889726e+02=T 90.00000=T Traj:=T positionsangstrom=T Step:=T 0=T Bead:=T pbc="F F F"
C      -47.62090000     -34.44240000     -68.77860000
C      -48.07640000     -34.91550000     -70.02970000
C      -48.71450000     -34.00610000     -70.89050000
C      -48.76230000     -32.62780000     -70.54490000
C      -48.33970000     -32.23640000     -69.29410000
C      -47.72270000     -33.14800000     -68.37770000
H      -47.09560000     -35.19480000     -68.21350000
H      -49.03170000     -34.39690000     -71.84690000
H      -48.40330000     -31.12650000     -69.10810000
H      -47.36640000     -32.76580000     -67.47770000
C      -49.21910000     -31.58960000     -71.50350000
H      -49.43560000     -30.64530000     -71.04760000
H      -50.07880000     -31.87070000     -72.17630000
C      -47.82110000     -36.28400000     -70.46500000
H      -47.22490000     -36.96460000     -69.80660000
H      -48.73410000     -36.85840000     -70.65780000
S      -47.88130000     -31.20570000     -72.84830000
S      -47.04200000     -36.25930000     -72.14050000
C      -46.26850000     -31.02310000     -72.04410000
H      -45.80340000     -30.14690000     -72.52600000
H      -46.47340000     -30.71590000     -70.96920000
C      -45.30150000     -35.79640000     -71.56250000
H      -44.87540000     -36.58520000     -70.98400000
H      -45.36000000     -34.89560000     -70.84380000
C      -44.28930000     -35.41000000     -72.66000000
H      -43.87690000     -36.40430000     -73.10100000
H      -44.80770000     -34.92640000     -73.45660000
C      -45.41190000     -32.23840000     -72.12890000
H      -45.57550000     -32.81480000     -73.09590000
H      -45.75240000     -32.92910000     -71.32090000
C      -43.94840000     -32.03120000     -71.85070000
C      -43.28980000     -30.88300000     -71.40890000
C      -43.02060000     -33.15760000     -71.81890000
H      -43.81120000     -29.96640000     -71.23510000
C      -41.70970000     -32.85250000     -71.43400000
C      -43.13350000     -34.54990000     -72.09360000
C      -41.93810000     -35.23940000     -71.75690000
S      -41.60360000     -31.13000000     -70.93080000
S      -40.67800000     -34.19950000     -71.16580000
H      -41.88150000     -36.34960000     -71.87060000
