40
Properties=species:S:1:pos:R:3 #=T CELL(abcABC):=T 1.889726e+02=T 90.00000=T Traj:=T positionsangstrom=T Step:=T 0=T Bead:=T pbc="F F F"
C      -44.45640000     -37.06660000     -69.40920000
C      -44.23270000     -35.78160000     -68.92310000
C      -45.34610000     -35.01890000     -68.43630000
C      -46.64110000     -35.50260000     -68.61090000
C      -46.81150000     -36.82310000     -69.03630000
C      -45.75070000     -37.58100000     -69.38530000
H      -43.62620000     -37.60840000     -69.76700000
H      -45.20190000     -34.03500000     -67.95900000
H      -47.88100000     -37.22930000     -69.00080000
H      -45.95540000     -38.55980000     -69.91510000
C      -47.86920000     -34.64340000     -68.29600000
H      -47.65090000     -33.86740000     -67.50640000
H      -48.79320000     -35.10920000     -67.81810000
C      -42.79150000     -35.15750000     -68.81570000
H      -42.66620000     -34.69130000     -67.82400000
H      -42.08230000     -35.88370000     -69.09710000
S      -48.69390000     -34.01990000     -69.82630000
S      -42.74220000     -33.66970000     -70.05550000
C      -47.43510000     -32.84810000     -70.62030000
H      -47.67140000     -31.81750000     -70.42950000
H      -46.46390000     -33.09240000     -70.23010000
C      -42.95240000     -34.71340000     -71.56780000
H      -43.01400000     -35.83900000     -71.42250000
H      -42.07810000     -34.48470000     -72.19150000
C      -44.27370000     -34.31210000     -72.30790000
H      -44.49950000     -34.97620000     -73.18340000
H      -45.14540000     -34.48480000     -71.60650000
C      -47.48850000     -33.03240000     -72.23770000
H      -48.58610000     -32.99240000     -72.47980000
H      -47.23160000     -34.05500000     -72.43470000
C      -46.71460000     -31.96780000     -73.00960000
C      -47.26130000     -30.78180000     -73.45780000
C      -45.26660000     -32.00200000     -73.11560000
H      -48.27680000     -30.59120000     -73.35300000
C      -44.78780000     -30.84070000     -73.72750000
C      -44.13840000     -32.86480000     -72.76570000
C      -42.92440000     -32.37420000     -73.19170000
S      -45.99070000     -29.69510000     -74.07400000
S      -43.09620000     -30.81500000     -74.10760000
H      -41.92470000     -32.75840000     -72.99840000
