40
Properties=species:S:1:pos:R:3 #=T CELL(abcABC):=T 1.889726e+02=T 90.00000=T Traj:=T positionsangstrom=T Step:=T 0=T Bead:=T pbc="F F F"
C      -48.19440000     -34.67750000     -68.71960000
C      -47.99520000     -34.96310000     -70.05990000
C      -48.25550000     -33.89590000     -71.01450000
C      -48.55870000     -32.64760000     -70.54050000
C      -48.63620000     -32.35700000     -69.15640000
C      -48.48060000     -33.40060000     -68.26920000
H      -48.04730000     -35.48060000     -67.99970000
H      -48.19140000     -34.06740000     -72.07030000
H      -48.89940000     -31.34810000     -68.75370000
H      -48.63220000     -33.20530000     -67.23430000
C      -48.88820000     -31.39140000     -71.34140000
H      -48.84950000     -30.55850000     -70.66790000
H      -49.94020000     -31.52960000     -71.62830000
C      -47.71580000     -36.38550000     -70.45230000
H      -47.40710000     -36.95630000     -69.59880000
H      -48.61950000     -36.78720000     -70.95180000
S      -47.99770000     -30.94800000     -72.90640000
S      -46.44010000     -36.69440000     -71.84140000
C      -46.19360000     -30.82870000     -72.48000000
H      -45.64690000     -30.47240000     -73.27880000
H      -46.16400000     -30.23130000     -71.60520000
C      -45.03800000     -35.66640000     -71.26340000
H      -44.49850000     -36.30750000     -70.53120000
H      -45.41290000     -34.76650000     -70.77390000
C      -44.25580000     -35.32550000     -72.50940000
H      -44.00530000     -36.37030000     -73.01740000
H      -44.86510000     -34.79200000     -73.23280000
C      -45.57700000     -32.16380000     -72.09130000
H      -45.83340000     -32.95360000     -72.80850000
H      -46.04030000     -32.51710000     -71.16670000
C      -44.06940000     -32.13170000     -71.75790000
C      -43.53010000     -30.95650000     -71.28380000
C      -43.12620000     -33.21860000     -71.75040000
H      -43.90900000     -29.95490000     -71.17060000
C      -41.83190000     -32.74990000     -71.38370000
C      -43.05020000     -34.58740000     -72.22490000
C      -41.79190000     -35.12140000     -72.27200000
S      -41.87150000     -31.09580000     -70.87510000
S      -40.64120000     -34.07600000     -71.51470000
H      -41.56130000     -36.18850000     -72.44450000
