40
Properties=species:S:1:pos:R:3 #=T CELL(abcABC):=T 1.889726e+02=T 90.00000=T Traj:=T positionsangstrom=T Step:=T 0=T Bead:=T pbc="F F F"
C      -47.84380000     -34.73990000     -68.54010000
C      -48.03630000     -35.14640000     -69.83000000
C      -48.46980000     -34.25760000     -70.81940000
C      -48.68450000     -32.90680000     -70.53070000
C      -48.47870000     -32.49940000     -69.18220000
C      -47.99950000     -33.36370000     -68.19440000
H      -47.49210000     -35.47420000     -67.77680000
H      -48.54500000     -34.55860000     -71.90240000
H      -48.79710000     -31.46100000     -68.88600000
H      -47.74640000     -33.06810000     -67.15340000
C      -49.14910000     -31.95790000     -71.58870000
H      -49.40640000     -31.02370000     -71.16070000
H      -50.08420000     -32.37860000     -72.11000000
C      -47.69040000     -36.51800000     -70.44490000
H      -47.20050000     -37.20930000     -69.77430000
H      -48.62310000     -36.83400000     -70.90630000
S      -48.02080000     -31.70420000     -72.99450000
S      -46.65140000     -36.33670000     -71.94120000
C      -46.48310000     -31.16650000     -72.23150000
H      -46.08740000     -30.42870000     -72.92100000
H      -46.52340000     -30.61200000     -71.25750000
C      -44.96010000     -35.78440000     -71.33150000
H      -44.47980000     -36.56650000     -70.83940000
H      -45.09270000     -34.99410000     -70.55020000
C      -44.10030000     -35.29170000     -72.48380000
H      -43.67520000     -36.14160000     -73.01580000
H      -44.76070000     -34.61020000     -73.11750000
C      -45.55210000     -32.31160000     -72.03890000
H      -45.66790000     -32.89650000     -73.02480000
H      -45.93200000     -33.13690000     -71.30880000
C      -44.09370000     -32.02030000     -71.64410000
C      -43.69590000     -30.76060000     -71.18020000
C      -43.10420000     -33.04650000     -71.61550000
H      -44.31920000     -29.80200000     -71.21030000
C      -41.85880000     -32.49280000     -71.32940000
C      -42.97050000     -34.43980000     -72.05450000
C      -41.65110000     -34.83880000     -72.18230000
S      -41.91300000     -30.71840000     -70.97060000
S      -40.52710000     -33.57310000     -71.72100000
H      -41.31260000     -35.82040000     -72.50770000
