40
Properties=species:S:1:pos:R:3 #=T CELL(abcABC):=T 1.889726e+02=T 90.00000=T Traj:=T positionsangstrom=T Step:=T 0=T Bead:=T pbc="F F F"
C      -43.98740000     -30.24170000     -73.19130000
C      -45.17960000     -30.19580000     -72.41850000
C      -45.11690000     -30.39060000     -71.03970000
C      -43.84270000     -30.54520000     -70.34640000
C      -42.76720000     -30.85420000     -71.13800000
C      -42.75190000     -30.64810000     -72.58600000
H      -44.11490000     -30.38480000     -74.22680000
H      -46.06280000     -30.25150000     -70.48090000
H      -41.79600000     -31.13540000     -70.68650000
H      -41.82620000     -30.69370000     -73.07620000
C      -43.68980000     -30.34790000     -68.86320000
H      -44.10070000     -29.34230000     -68.55630000
H      -42.62750000     -30.35900000     -68.62390000
C      -46.48860000     -29.94800000     -73.15340000
H      -47.26080000     -29.99520000     -72.34360000
H      -46.58490000     -28.99300000     -73.67000000
S      -44.55890000     -31.58640000     -67.84780000
S      -46.62950000     -31.40280000     -74.32130000
C      -44.45380000     -33.17920000     -68.85400000
H      -43.47080000     -33.32060000     -69.37310000
H      -44.53840000     -34.03170000     -68.08910000
C      -46.65650000     -32.69500000     -73.08460000
H      -47.61820000     -33.23160000     -73.08330000
H      -46.61790000     -32.26440000     -72.05900000
C      -45.49860000     -33.66050000     -73.33550000
H      -45.42190000     -33.77500000     -74.44110000
H      -44.62560000     -33.12870000     -73.04640000
C      -45.64380000     -33.36150000     -69.80260000
H      -45.33640000     -32.82430000     -70.76060000
H      -46.51460000     -32.95870000     -69.35340000
C      -45.91840000     -34.87710000     -69.98220000
C      -46.12640000     -35.84030000     -68.97190000
C      -45.88350000     -35.48920000     -71.30180000
H      -46.14420000     -35.68160000     -67.89720000
C      -46.00270000     -36.90490000     -71.19080000
C      -45.53240000     -35.05130000     -72.63280000
C      -45.50890000     -36.17130000     -73.47270000
S      -46.11610000     -37.44330000     -69.57420000
S      -45.77880000     -37.71540000     -72.68160000
H      -45.24650000     -36.21990000     -74.49720000
