40
Properties=species:S:1:pos:R:3 #=T CELL(abcABC):=T 1.889726e+02=T 90.00000=T Traj:=T positionsangstrom=T Step:=T 0=T Bead:=T pbc="F F F"
C      -44.73420000     -34.58710000     -73.08280000
C      -44.29250000     -33.29990000     -73.47960000
C      -43.44270000     -32.59410000     -72.64230000
C      -42.79280000     -33.26300000     -71.53610000
C      -43.16500000     -34.56700000     -71.22950000
C      -44.23970000     -35.16810000     -71.91040000
H      -45.41110000     -35.12380000     -73.82000000
H      -43.13500000     -31.61040000     -72.99240000
H      -42.80600000     -34.90820000     -70.25600000
H      -44.57230000     -36.13410000     -71.55150000
C      -41.77440000     -32.41380000     -70.68350000
H      -41.48540000     -31.63590000     -71.32000000
H      -40.90280000     -32.97710000     -70.43600000
C      -44.90090000     -32.67840000     -74.73190000
H      -44.57840000     -31.62020000     -74.73230000
H      -44.64090000     -33.26560000     -75.66350000
S      -42.47310000     -31.77730000     -69.06060000
S      -46.82560000     -32.56290000     -74.68440000
C      -44.12310000     -31.08000000     -69.55370000
H      -44.02270000     -30.02200000     -69.23630000
H      -44.17490000     -31.16030000     -70.65230000
C      -47.13480000     -31.24240000     -73.50330000
H      -48.19810000     -30.90970000     -73.69440000
H      -46.54290000     -30.38510000     -73.74670000
C      -46.88000000     -31.56810000     -72.01120000
H      -45.82310000     -31.34620000     -71.87710000
H      -47.50780000     -30.85950000     -71.44050000
C      -45.34790000     -31.69730000     -68.82560000
H      -46.27920000     -31.04680000     -69.08120000
H      -45.24660000     -31.60410000     -67.75100000
C      -45.61410000     -33.14890000     -69.14870000
C      -45.24920000     -34.23210000     -68.36010000
C      -46.43660000     -33.53970000     -70.32280000
H      -44.57880000     -34.21540000     -67.51060000
C      -46.54420000     -34.98670000     -70.40070000
C      -47.11640000     -32.89720000     -71.48630000
C      -47.88420000     -33.86280000     -72.16930000
S      -45.80360000     -35.76350000     -69.08370000
S      -47.79110000     -35.51280000     -71.56310000
H      -48.60950000     -33.74470000     -72.98320000
