40
Properties=species:S:1:pos:R:3 #=T CELL(abcABC):=T 1.889726e+02=T 90.00000=T Traj:=T positionsangstrom=T Step:=T 0=T Bead:=T pbc="F F F"
C      -47.09200000     -35.07440000     -68.83580000
C      -47.16870000     -35.65820000     -70.09320000
C      -48.08580000     -35.07990000     -70.97520000
C      -48.77490000     -33.87160000     -70.70910000
C      -48.55690000     -33.27160000     -69.51430000
C      -47.67750000     -33.85890000     -68.58390000
H      -46.39270000     -35.54530000     -68.16700000
H      -48.28640000     -35.58900000     -71.84100000
H      -48.98070000     -32.29340000     -69.27100000
H      -47.62530000     -33.41500000     -67.55400000
C      -49.63500000     -33.24730000     -71.79690000
H      -50.38990000     -32.56400000     -71.37890000
H      -50.09910000     -34.03100000     -72.29110000
C      -46.61390000     -37.04450000     -70.34860000
H      -46.32700000     -37.48690000     -69.42270000
H      -47.37520000     -37.65530000     -70.78980000
S      -48.69510000     -32.16460000     -73.07690000
S      -45.18940000     -37.07900000     -71.40760000
C      -47.19850000     -31.65040000     -72.16410000
H      -47.02490000     -30.60500000     -72.45490000
H      -47.45230000     -31.66520000     -71.16980000
C      -44.28140000     -35.49310000     -71.05360000
H      -43.46450000     -35.73670000     -70.41620000
H      -44.93130000     -34.84810000     -70.53750000
C      -43.65430000     -34.97120000     -72.37260000
H      -43.22600000     -35.83470000     -72.85790000
H      -44.47450000     -34.55430000     -72.97160000
C      -45.96870000     -32.51590000     -72.29720000
H      -45.84210000     -32.91620000     -73.30510000
H      -46.04570000     -33.43430000     -71.68810000
C      -44.62910000     -31.80100000     -71.89660000
C      -44.56970000     -30.51790000     -71.49350000
C      -43.29240000     -32.43070000     -71.91610000
H      -45.32970000     -29.90800000     -71.17070000
C      -42.31280000     -31.48740000     -71.52160000
C      -42.74000000     -33.77810000     -72.18210000
C      -41.39980000     -33.84800000     -71.72360000
S      -42.95020000     -29.93320000     -71.04520000
S      -40.77120000     -32.20240000     -71.26060000
H      -40.72330000     -34.74070000     -71.88360000
