40
Properties=species:S:1:pos:R:3 #=T CELL(abcABC):=T 1.889726e+02=T 90.00000=T Traj:=T positionsangstrom=T Step:=T 0=T Bead:=T pbc="F F F"
C      -47.23720000     -35.06940000     -68.81060000
C      -47.26080000     -35.71420000     -70.04940000
C      -48.05530000     -35.09300000     -71.02620000
C      -48.82300000     -33.95870000     -70.73570000
C      -48.66160000     -33.33760000     -69.52430000
C      -47.87830000     -33.89340000     -68.50930000
H      -46.67060000     -35.60300000     -67.97810000
H      -48.07850000     -35.53360000     -72.02410000
H      -49.12530000     -32.35790000     -69.39240000
H      -47.82410000     -33.44030000     -67.51260000
C      -49.60740000     -33.22680000     -71.73080000
H      -50.34000000     -32.52460000     -71.35350000
H      -50.25000000     -33.95480000     -72.34310000
C      -46.53630000     -37.04480000     -70.20320000
H      -46.21840000     -37.58840000     -69.27060000
H      -47.34590000     -37.71700000     -70.60380000
S      -48.58050000     -32.28780000     -73.01330000
S      -45.16430000     -37.04090000     -71.41990000
C      -47.12610000     -31.56000000     -72.12040000
H      -46.90540000     -30.60210000     -72.68310000
H      -47.30000000     -31.22770000     -71.04850000
C      -44.21950000     -35.46120000     -71.11220000
H      -43.60020000     -35.59880000     -70.17480000
H      -45.01410000     -34.65490000     -70.78980000
C      -43.43440000     -35.12090000     -72.35540000
H      -42.78800000     -35.92790000     -72.68470000
H      -44.12500000     -35.09220000     -73.22790000
C      -45.88780000     -32.51610000     -72.23650000
H      -45.72240000     -32.58420000     -73.34260000
H      -46.26380000     -33.46810000     -71.78730000
C      -44.65700000     -31.82810000     -71.72090000
C      -44.69910000     -30.56970000     -71.25050000
C      -43.32420000     -32.43410000     -71.76480000
H      -45.59190000     -29.97730000     -71.23050000
C      -42.36470000     -31.47220000     -71.35850000
C      -42.76990000     -33.77130000     -72.12600000
C      -41.37130000     -33.72170000     -71.96730000
S      -43.03850000     -29.86470000     -71.05050000
S      -40.72850000     -32.12470000     -71.62580000
H      -40.69320000     -34.61620000     -72.00810000
