40
Properties=species:S:1:pos:R:3 #=T CELL(abcABC):=T 1.889726e+02=T 90.00000=T Traj:=T positionsangstrom=T Step:=T 0=T Bead:=T pbc="F F F"
C      -47.23700000     -35.12590000     -68.69550000
C      -47.22290000     -35.73640000     -69.93310000
C      -47.93950000     -35.12980000     -70.95070000
C      -48.70790000     -34.01760000     -70.76300000
C      -48.72930000     -33.45810000     -69.45600000
C      -48.04230000     -33.98860000     -68.39960000
H      -46.62330000     -35.55440000     -67.88580000
H      -47.95320000     -35.53510000     -71.98890000
H      -49.39870000     -32.63280000     -69.22460000
H      -48.04060000     -33.54600000     -67.43070000
C      -49.54180000     -33.42540000     -71.86390000
H      -50.23080000     -32.77470000     -71.35510000
H      -50.16610000     -34.19580000     -72.36010000
C      -46.53970000     -37.08700000     -70.17580000
H      -46.14580000     -37.50410000     -69.23820000
H      -47.24620000     -37.76710000     -70.64600000
S      -48.61410000     -32.41870000     -73.19240000
S      -45.24730000     -36.91360000     -71.51720000
C      -47.20740000     -31.63490000     -72.23950000
H      -47.00800000     -30.78610000     -72.76310000
H      -47.54690000     -31.40120000     -71.24130000
C      -44.12710000     -35.62760000     -70.94450000
H      -43.26130000     -36.04600000     -70.51710000
H      -44.59570000     -34.89640000     -70.28780000
C      -43.62250000     -34.90180000     -72.22200000
H      -42.95680000     -35.61660000     -72.72960000
H      -44.42460000     -34.64240000     -72.88010000
C      -46.00080000     -32.54450000     -72.02870000
H      -45.73150000     -33.06080000     -72.92700000
H      -46.19360000     -33.30670000     -71.29820000
C      -44.63190000     -31.80120000     -71.59290000
C      -44.51950000     -30.49800000     -71.29100000
C      -43.32440000     -32.38050000     -71.66320000
H      -45.32390000     -29.77570000     -71.34990000
C      -42.34160000     -31.42710000     -71.31650000
C      -42.80290000     -33.64270000     -72.00900000
C      -41.41480000     -33.62270000     -72.18770000
S      -42.96760000     -29.86140000     -70.91210000
S      -40.67650000     -31.99730000     -71.84020000
H      -40.74270000     -34.41440000     -72.48020000
