40
Properties=species:S:1:pos:R:3 #=T CELL(abcABC):=T 1.889726e+02=T 90.00000=T Traj:=T positionsangstrom=T Step:=T 0=T Bead:=T pbc="F F F"
C      -45.37030000     -36.79070000     -69.28910000
C      -45.70290000     -36.91890000     -70.62830000
C      -44.79950000     -36.64230000     -71.67850000
C      -43.45470000     -36.38250000     -71.42530000
C      -43.14710000     -36.21430000     -70.07680000
C      -44.05050000     -36.39600000     -69.02140000
H      -46.10290000     -36.78350000     -68.50990000
H      -45.22410000     -36.62580000     -72.71170000
H      -42.11100000     -35.93910000     -69.90070000
H      -43.78390000     -36.06770000     -68.01520000
C      -42.37640000     -36.11330000     -72.51270000
H      -42.06380000     -37.01170000     -73.07130000
H      -41.44190000     -35.63550000     -72.06450000
C      -47.21070000     -36.99140000     -71.05930000
H      -47.22090000     -37.26060000     -72.12460000
H      -47.78710000     -37.82470000     -70.46140000
S      -42.96570000     -34.78940000     -73.80990000
S      -47.99240000     -35.40430000     -70.48060000
C      -43.57030000     -33.52440000     -72.56480000
H      -43.92790000     -33.95720000     -71.69580000
H      -42.72690000     -32.95330000     -72.22930000
C      -46.91170000     -34.17210000     -71.54260000
H      -46.78220000     -34.72550000     -72.50550000
H      -45.96970000     -34.04690000     -70.89200000
C      -47.67740000     -32.89580000     -71.68240000
H      -47.72080000     -32.57700000     -72.73210000
H      -48.73830000     -32.98920000     -71.44590000
C      -44.67760000     -32.69690000     -73.20810000
H      -45.62970000     -33.29890000     -73.18490000
H      -44.47090000     -32.42960000     -74.29420000
C      -44.86150000     -31.38640000     -72.49790000
C      -43.96760000     -30.30370000     -72.61900000
C      -45.84760000     -31.10040000     -71.47820000
H      -43.07990000     -30.30110000     -73.26090000
C      -45.65140000     -29.87660000     -70.81800000
C      -47.08150000     -31.70470000     -70.99810000
C      -47.59900000     -31.16470000     -69.84970000
S      -44.17960000     -29.10240000     -71.44750000
S      -46.75250000     -29.66810000     -69.46240000
H      -48.42160000     -31.60090000     -69.27770000
