40
Properties=species:S:1:pos:R:3 #=T CELL(abcABC):=T 1.889726e+02=T 90.00000=T Traj:=T positionsangstrom=T Step:=T 0=T Bead:=T pbc="F F F"
C      -42.69560000     -33.19640000     -73.82230000
C      -43.18820000     -32.03340000     -73.21010000
C      -42.94950000     -31.80170000     -71.83170000
C      -42.18980000     -32.75300000     -71.12240000
C      -41.66480000     -33.89480000     -71.72630000
C      -41.91380000     -34.08930000     -73.07290000
H      -42.97940000     -33.35660000     -74.88170000
H      -43.35050000     -30.87260000     -71.39330000
H      -41.09160000     -34.61110000     -71.21870000
H      -41.30440000     -34.94820000     -73.48490000
C      -42.07880000     -32.48860000     -69.66790000
H      -41.86800000     -31.41590000     -69.48220000
H      -41.24900000     -33.06770000     -69.21280000
C      -44.20380000     -31.23600000     -74.00600000
H      -44.50410000     -30.48390000     -73.31050000
H      -43.86300000     -30.82620000     -74.90940000
S      -43.62350000     -33.04420000     -68.73720000
S      -45.65910000     -32.19620000     -74.64750000
C      -44.77580000     -31.67940000     -69.18790000
H      -44.39450000     -30.81090000     -68.58020000
H      -44.59350000     -31.57130000     -70.23060000
C      -47.07420000     -31.41240000     -73.62570000
H      -47.90290000     -31.78810000     -74.22370000
H      -47.08630000     -30.30090000     -73.72450000
C      -47.08820000     -31.85510000     -72.05390000
H      -46.08030000     -31.57170000     -71.63110000
H      -47.84990000     -31.31060000     -71.55060000
C      -46.24410000     -32.02450000     -68.84700000
H      -46.90080000     -31.29270000     -69.32770000
H      -46.38790000     -31.94560000     -67.71900000
C      -46.63410000     -33.40570000     -69.20020000
C      -46.55820000     -34.48540000     -68.29590000
C      -47.03760000     -33.89730000     -70.56390000
H      -46.13820000     -34.44520000     -67.26640000
C      -47.23820000     -35.31780000     -70.52110000
C      -47.22500000     -33.31980000     -71.85640000
C      -47.64650000     -34.20500000     -72.81870000
S      -47.06590000     -36.01370000     -68.90800000
S      -47.86330000     -35.87870000     -72.05360000
H      -47.95370000     -34.17030000     -73.85080000
