40
Properties=species:S:1:pos:R:3 #=T CELL(abcABC):=T 1.889726e+02=T 90.00000=T Traj:=T positionsangstrom=T Step:=T 0=T Bead:=T pbc="F F F"
C      -47.30420000     -35.79180000     -68.40510000
C      -46.97730000     -36.00890000     -69.76490000
C      -47.59590000     -35.38830000     -70.85890000
C      -48.51980000     -34.36870000     -70.52140000
C      -48.83150000     -34.09740000     -69.13280000
C      -48.24880000     -34.83930000     -68.11780000
H      -46.89310000     -36.37580000     -67.59630000
H      -47.43840000     -35.65240000     -71.85920000
H      -49.54860000     -33.26330000     -68.98920000
H      -48.54340000     -34.60460000     -67.08470000
C      -49.43100000     -33.74640000     -71.56380000
H      -50.16070000     -33.03760000     -71.11770000
H      -50.03550000     -34.57500000     -71.96410000
C      -46.08260000     -37.14890000     -70.08430000
H      -45.62610000     -37.44640000     -69.09260000
H      -46.59380000     -37.98780000     -70.53130000
S      -48.64080000     -32.93310000     -73.00350000
S      -44.81250000     -36.78590000     -71.39240000
C      -47.22060000     -31.85500000     -72.22260000
H      -47.07420000     -31.06910000     -73.07060000
H      -47.63340000     -31.37380000     -71.30560000
C      -44.05990000     -35.13320000     -70.94670000
H      -43.27270000     -35.29180000     -70.19000000
H      -44.84300000     -34.45780000     -70.62950000
C      -43.40390000     -34.68910000     -72.23960000
H      -42.55610000     -35.32850000     -72.58070000
H      -44.20480000     -34.60230000     -72.94960000
C      -45.94430000     -32.60680000     -71.94800000
H      -45.65860000     -33.43690000     -72.59770000
H      -46.20630000     -33.17250000     -71.03030000
C      -44.80990000     -31.64930000     -71.76460000
C      -44.92500000     -30.29470000     -71.39500000
C      -43.44870000     -32.08600000     -71.89440000
H      -45.83690000     -29.66490000     -71.14530000
C      -42.57260000     -30.99820000     -71.74410000
C      -42.72640000     -33.35290000     -72.16720000
C      -41.38650000     -33.16940000     -72.34580000
S      -43.35170000     -29.48200000     -71.31010000
S      -40.90090000     -31.49290000     -72.06010000
H      -40.61640000     -33.93170000     -72.52660000
