40
Properties=species:S:1:pos:R:3 #=T CELL(abcABC):=T 1.889726e+02=T 90.00000=T Traj:=T positionsangstrom=T Step:=T 0=T Bead:=T pbc="F F F"
C      -42.55120000     -33.05020000     -73.72550000
C      -43.07780000     -31.90330000     -73.16170000
C      -42.88280000     -31.66400000     -71.79440000
C      -42.15490000     -32.64420000     -71.04850000
C      -41.66330000     -33.84700000     -71.65640000
C      -41.81860000     -34.01090000     -73.01040000
H      -42.67930000     -33.04680000     -74.79830000
H      -43.16570000     -30.78540000     -71.23300000
H      -41.12940000     -34.62650000     -71.04090000
H      -41.36910000     -34.90880000     -73.45930000
C      -42.03300000     -32.39540000     -69.51190000
H      -41.83440000     -31.32740000     -69.38620000
H      -41.22990000     -32.90520000     -68.99960000
C      -44.04700000     -31.00260000     -73.90000000
H      -44.45210000     -30.20550000     -73.27460000
H      -43.76040000     -30.54100000     -74.90140000
S      -43.46350000     -32.93950000     -68.53640000
S      -45.56600000     -32.10010000     -74.41470000
C      -44.79950000     -31.88660000     -69.24210000
H      -44.60730000     -30.86900000     -68.90240000
H      -44.82040000     -31.89270000     -70.38980000
C      -46.93300000     -31.30760000     -73.49420000
H      -47.88490000     -31.46150000     -74.02950000
H      -46.76700000     -30.24710000     -73.56300000
C      -47.19140000     -31.79800000     -72.10030000
H      -46.38680000     -31.40680000     -71.44460000
H      -48.12320000     -31.31570000     -71.76710000
C      -46.18760000     -32.29960000     -68.82130000
H      -46.98760000     -31.68350000     -69.15810000
H      -46.24840000     -32.31090000     -67.75360000
C      -46.63360000     -33.64570000     -69.33260000
C      -46.54350000     -34.75140000     -68.53180000
C      -47.16670000     -34.03030000     -70.60020000
H      -46.25610000     -34.81540000     -67.45460000
C      -47.46760000     -35.41210000     -70.67830000
C      -47.42330000     -33.28450000     -71.86990000
C      -47.84840000     -34.11370000     -72.85230000
S      -47.10550000     -36.27680000     -69.21200000
S      -48.05850000     -35.84780000     -72.23890000
H      -48.17530000     -34.01710000     -73.84420000
