40
Properties=species:S:1:pos:R:3 #=T CELL(abcABC):=T 1.889726e+02=T 90.00000=T Traj:=T positionsangstrom=T Step:=T 0=T Bead:=T pbc="F F F"
C      -42.51880000     -33.03800000     -73.67490000
C      -43.18070000     -31.95410000     -73.04620000
C      -42.91360000     -31.72750000     -71.69080000
C      -42.10450000     -32.64070000     -70.90610000
C      -41.46220000     -33.73160000     -71.57290000
C      -41.70490000     -33.89530000     -72.92050000
H      -42.72830000     -33.37530000     -74.68050000
H      -43.49640000     -30.91320000     -71.22690000
H      -40.81290000     -34.45770000     -70.98770000
H      -41.11860000     -34.63960000     -73.37510000
C      -41.91480000     -32.36360000     -69.46260000
H      -41.82250000     -31.24230000     -69.29490000
H      -41.02210000     -32.79760000     -69.01350000
C      -44.14300000     -31.10000000     -73.86350000
H      -44.32630000     -30.16480000     -73.37680000
H      -43.66230000     -30.87270000     -74.77530000
S      -43.36550000     -32.98020000     -68.37300000
S      -45.63110000     -32.08210000     -74.41490000
C      -44.76290000     -31.93310000     -69.00210000
H      -44.66500000     -30.89420000     -68.68820000
H      -44.53700000     -31.91820000     -70.06980000
C      -47.01970000     -31.33610000     -73.47210000
H      -47.91390000     -31.64890000     -74.05830000
H      -46.95380000     -30.22480000     -73.62380000
C      -47.17240000     -31.76410000     -72.00320000
H      -46.35220000     -31.57930000     -71.35400000
H      -47.97310000     -31.21900000     -71.50440000
C      -46.18740000     -32.47010000     -68.75250000
H      -46.85960000     -31.60860000     -68.95070000
H      -46.24600000     -32.58610000     -67.64980000
C      -46.56500000     -33.71030000     -69.36610000
C      -46.67660000     -34.87450000     -68.61600000
C      -47.09630000     -34.04310000     -70.70580000
H      -46.31670000     -34.93190000     -67.55000000
C      -47.42650000     -35.43240000     -70.89420000
C      -47.32180000     -33.22360000     -71.89200000
C      -47.85930000     -34.01400000     -72.87610000
S      -47.30780000     -36.31370000     -69.40040000
S      -48.06810000     -35.69400000     -72.48470000
H      -48.06110000     -33.84800000     -73.91450000
