40
Properties=species:S:1:pos:R:3 #=T CELL(abcABC):=T 1.889726e+02=T 90.00000=T Traj:=T positionsangstrom=T Step:=T 0=T Bead:=T pbc="F F F"
C      -42.49630000     -33.28780000     -73.51230000
C      -43.18440000     -32.14440000     -73.03890000
C      -42.96800000     -31.72690000     -71.72470000
C      -42.09020000     -32.41050000     -70.85720000
C      -41.36770000     -33.54590000     -71.33290000
C      -41.64590000     -33.97070000     -72.67530000
H      -42.54850000     -33.54530000     -74.56340000
H      -43.37250000     -30.74600000     -71.36390000
H      -40.69670000     -34.14980000     -70.74510000
H      -41.35780000     -34.91430000     -73.10330000
C      -42.00900000     -32.13640000     -69.40060000
H      -41.95530000     -31.09290000     -69.22530000
H      -41.11570000     -32.63260000     -69.00040000
C      -44.10230000     -31.27210000     -73.90810000
H      -44.48640000     -30.36060000     -73.27180000
H      -43.57560000     -30.88540000     -74.78740000
S      -43.42640000     -32.93670000     -68.49310000
S      -45.61970000     -32.06820000     -74.42830000
C      -44.87620000     -31.97480000     -69.07320000
H      -45.00450000     -30.92470000     -68.83560000
H      -44.70750000     -32.15250000     -70.13430000
C      -46.85730000     -31.15500000     -73.50830000
H      -47.80470000     -31.35040000     -74.02880000
H      -46.59470000     -30.12540000     -73.45960000
C      -46.93580000     -31.71480000     -72.02460000
H      -45.90460000     -31.52530000     -71.71880000
H      -47.58930000     -31.03150000     -71.41410000
C      -46.22170000     -32.61420000     -68.57680000
H      -47.07520000     -31.88950000     -68.52110000
H      -46.01180000     -32.90640000     -67.56470000
C      -46.66750000     -33.84900000     -69.33470000
C      -46.66970000     -35.05960000     -68.61690000
C      -47.13000000     -34.01240000     -70.69400000
H      -46.43710000     -35.17840000     -67.57900000
C      -47.56920000     -35.30120000     -70.88600000
C      -47.23820000     -33.19370000     -71.86790000
C      -47.85000000     -33.89040000     -72.92430000
S      -47.28050000     -36.42100000     -69.57790000
S      -48.12250000     -35.63710000     -72.48370000
H      -47.98840000     -33.63840000     -73.98450000
