40
Properties=species:S:1:pos:R:3 #=T CELL(abcABC):=T 1.889726e+02=T 90.00000=T Traj:=T positionsangstrom=T Step:=T 0=T Bead:=T pbc="F F F"
C      -42.41190000     -33.22320000     -73.53840000
C      -43.11410000     -32.08900000     -73.09380000
C      -43.01880000     -31.63070000     -71.79420000
C      -42.43170000     -32.39060000     -70.83230000
C      -41.92680000     -33.66520000     -71.19030000
C      -41.85780000     -34.06230000     -72.52330000
H      -42.47990000     -33.51360000     -74.58960000
H      -43.26690000     -30.60220000     -71.52590000
H      -41.62740000     -34.43330000     -70.47600000
H      -41.38070000     -35.03730000     -72.85640000
C      -42.26400000     -31.95890000     -69.40650000
H      -42.50170000     -30.87320000     -69.24730000
H      -41.27350000     -32.13300000     -69.05440000
C      -43.81350000     -31.24000000     -74.13730000
H      -43.86790000     -30.23180000     -73.88690000
H      -43.21910000     -31.40330000     -75.06590000
S      -43.37600000     -32.95360000     -68.28940000
S      -45.51720000     -31.89020000     -74.43500000
C      -44.98390000     -32.02600000     -68.59360000
H      -44.94030000     -31.20700000     -67.89000000
H      -44.96320000     -31.59600000     -69.61980000
C      -46.60840000     -31.09230000     -73.14420000
H      -47.62940000     -31.10410000     -73.50260000
H      -46.20970000     -30.05820000     -73.01760000
C      -46.70700000     -31.81410000     -71.82610000
H      -45.70770000     -31.68110000     -71.36530000
H      -47.44860000     -31.20220000     -71.20760000
C      -46.28310000     -32.70500000     -68.50590000
H      -47.03100000     -31.87990000     -68.66890000
H      -46.46160000     -33.05320000     -67.43570000
C      -46.62370000     -33.99010000     -69.43700000
C      -46.61100000     -35.21190000     -68.77570000
C      -47.01350000     -34.13090000     -70.81130000
H      -46.33700000     -35.24630000     -67.71100000
C      -47.46260000     -35.42530000     -71.12330000
C      -47.16850000     -33.26640000     -71.95540000
C      -47.83430000     -33.89650000     -73.01170000
S      -47.19650000     -36.46490000     -69.76880000
S      -48.25770000     -35.55860000     -72.65500000
H      -48.07330000     -33.36740000     -73.97480000
