40
Properties=species:S:1:pos:R:3 #=T CELL(abcABC):=T 1.889726e+02=T 90.00000=T Traj:=T positionsangstrom=T Step:=T 0=T Bead:=T pbc="F F F"
C      -46.55870000     -35.41120000     -68.42060000
C      -46.59700000     -35.83280000     -69.71450000
C      -47.56280000     -35.34510000     -70.60020000
C      -48.38380000     -34.24990000     -70.21540000
C      -48.35900000     -33.85360000     -68.87380000
C      -47.39310000     -34.43720000     -67.99730000
H      -45.74310000     -35.70060000     -67.71590000
H      -47.74950000     -35.81310000     -71.60270000
H      -49.04400000     -33.10810000     -68.50480000
H      -47.30950000     -34.13860000     -66.97480000
C      -49.45890000     -33.68970000     -71.09790000
H      -49.97530000     -32.85840000     -70.67380000
H      -50.23030000     -34.51910000     -71.20400000
C      -45.78110000     -37.08840000     -70.01540000
H      -45.20400000     -37.36470000     -69.09490000
H      -46.47250000     -37.86250000     -70.30780000
S      -48.98610000     -33.24650000     -72.86850000
S      -44.50910000     -37.06650000     -71.38010000
C      -47.48170000     -32.07490000     -72.59140000
H      -47.58380000     -31.39010000     -73.49030000
H      -47.62600000     -31.36980000     -71.68630000
C      -43.76280000     -35.34460000     -70.98540000
H      -43.01610000     -35.49440000     -70.13040000
H      -44.58970000     -34.80710000     -70.56080000
C      -43.31020000     -34.63380000     -72.20820000
H      -42.70680000     -35.30990000     -72.86570000
H      -44.28360000     -34.42550000     -72.71600000
C      -46.11740000     -32.72930000     -72.44690000
H      -45.83620000     -33.20500000     -73.35050000
H      -46.09840000     -33.51960000     -71.63170000
C      -45.02620000     -31.74080000     -72.21360000
C      -45.18380000     -30.40280000     -72.30170000
C      -43.67050000     -32.11110000     -71.95690000
H      -46.19520000     -29.99930000     -72.52760000
C      -42.82020000     -30.96400000     -71.72740000
C      -42.80270000     -33.29570000     -71.91370000
C      -41.50180000     -33.02770000     -71.55710000
S      -43.74850000     -29.46430000     -72.10700000
S      -41.18000000     -31.30790000     -71.50100000
H      -40.70360000     -33.75190000     -71.67740000
