40
Properties=species:S:1:pos:R:3 #=T CELL(abcABC):=T 1.889726e+02=T 90.00000=T Traj:=T positionsangstrom=T Step:=T 0=T Bead:=T pbc="F F F"
C      -47.33100000     -32.96380000     -75.37170000
C      -46.23890000     -33.44010000     -74.65820000
C      -45.36400000     -32.53560000     -74.10510000
C      -45.65460000     -31.16090000     -74.20390000
C      -46.79470000     -30.67860000     -74.84630000
C      -47.58670000     -31.59570000     -75.49610000
H      -48.08990000     -33.58470000     -75.89790000
H      -44.49730000     -32.96770000     -73.59410000
H      -47.05220000     -29.62760000     -74.95130000
H      -48.55590000     -31.20220000     -75.80250000
C      -44.75710000     -30.13200000     -73.52860000
H      -44.83850000     -29.26720000     -74.20380000
H      -43.70250000     -30.47320000     -73.49150000
C      -46.02210000     -34.88610000     -74.50220000
H      -46.12050000     -35.39170000     -75.50320000
H      -44.97620000     -35.08350000     -74.10790000
S      -45.47860000     -29.67570000     -71.80090000
S      -47.23980000     -35.70900000     -73.29060000
C      -44.49160000     -30.76070000     -70.69880000
H      -43.41290000     -30.78700000     -71.08010000
H      -44.41910000     -30.22760000     -69.76160000
C      -46.68780000     -35.08190000     -71.68360000
H      -47.20250000     -35.61750000     -70.87560000
H      -46.93240000     -34.04270000     -71.56940000
C      -45.20480000     -35.36580000     -71.49510000
H      -45.09740000     -36.36920000     -72.01610000
H      -44.63800000     -34.71740000     -72.08050000
C      -45.12510000     -32.07730000     -70.61140000
H      -45.12170000     -32.65790000     -71.51350000
H      -46.22830000     -31.98420000     -70.56370000
C      -44.60760000     -32.88550000     -69.39800000
C      -44.28410000     -32.27890000     -68.20480000
C      -44.47230000     -34.35030000     -69.29540000
H      -44.18100000     -31.24270000     -67.85230000
C      -44.05720000     -34.73720000     -68.03070000
C      -44.69480000     -35.51960000     -70.07830000
C      -44.37740000     -36.66060000     -69.44660000
S      -43.66650000     -33.35940000     -66.99740000
S      -43.88150000     -36.44170000     -67.84210000
H      -44.58490000     -37.63640000     -69.76510000
