40
Properties=species:S:1:pos:R:3 #=T CELL(abcABC):=T 1.889726e+02=T 90.00000=T Traj:=T positionsangstrom=T Step:=T 0=T Bead:=T pbc="F F F"
C      -47.08500000     -33.10160000     -75.65150000
C      -46.05030000     -33.55040000     -74.72760000
C      -45.35660000     -32.62070000     -73.96270000
C      -45.58540000     -31.22500000     -74.13700000
C      -46.54820000     -30.87650000     -75.10430000
C      -47.37640000     -31.78520000     -75.78170000
H      -47.62540000     -33.83650000     -76.20470000
H      -44.51190000     -32.93000000     -73.28360000
H      -46.90890000     -29.83420000     -75.27370000
H      -48.08820000     -31.43630000     -76.59660000
C      -44.74280000     -30.20740000     -73.42340000
H      -44.50000000     -29.32910000     -74.00430000
H      -43.84170000     -30.61650000     -73.06620000
C      -45.93650000     -35.09100000     -74.55100000
H      -46.03170000     -35.48050000     -75.57590000
H      -45.01140000     -35.35510000     -74.11880000
S      -45.36330000     -29.45520000     -71.85770000
S      -47.33230000     -35.62130000     -73.43590000
C      -44.78130000     -30.64650000     -70.48320000
H      -43.70850000     -30.80960000     -70.59250000
H      -45.07300000     -30.15730000     -69.55530000
C      -46.64640000     -35.07730000     -71.75140000
H      -47.37890000     -35.36090000     -70.93570000
H      -46.67440000     -33.99220000     -71.89060000
C      -45.22440000     -35.47490000     -71.51910000
H      -44.94210000     -36.47720000     -71.92870000
H      -44.44740000     -34.83180000     -71.99780000
C      -45.36930000     -32.03910000     -70.41460000
H      -45.15260000     -32.53700000     -71.38250000
H      -46.46220000     -31.94190000     -70.39580000
C      -44.77130000     -32.82290000     -69.27120000
C      -44.37240000     -32.23660000     -68.13900000
C      -44.53210000     -34.33320000     -69.22060000
H      -44.51510000     -31.17570000     -67.88420000
C      -44.03290000     -34.68860000     -67.97050000
C      -44.84830000     -35.53060000     -70.04080000
C      -44.45140000     -36.62320000     -69.46900000
S      -43.82000000     -33.35940000     -66.84100000
S      -43.77480000     -36.41770000     -67.80940000
H      -44.49790000     -37.57840000     -69.95490000
