40
Properties=species:S:1:pos:R:3 #=T CELL(abcABC):=T 1.889726e+02=T 90.00000=T Traj:=T positionsangstrom=T Step:=T 0=T Bead:=T pbc="F F F"
C      -47.02410000     -33.09860000     -75.79670000
C      -46.11810000     -33.55950000     -74.89590000
C      -45.26540000     -32.69490000     -74.17640000
C      -45.36620000     -31.31680000     -74.23060000
C      -46.37500000     -30.81990000     -75.10210000
C      -47.17400000     -31.68880000     -75.85240000
H      -47.75360000     -33.77090000     -76.23720000
H      -44.47650000     -33.23680000     -73.60230000
H      -46.41270000     -29.74130000     -75.34630000
H      -47.80470000     -31.23360000     -76.63390000
C      -44.49500000     -30.39810000     -73.35450000
H      -44.12430000     -29.56220000     -73.94210000
H      -43.65160000     -30.87470000     -72.93460000
C      -45.95000000     -35.08010000     -74.74150000
H      -46.36940000     -35.55120000     -75.65440000
H      -44.90040000     -35.51370000     -74.57690000
S      -45.56150000     -29.65310000     -71.97140000
S      -46.94500000     -35.89230000     -73.36970000
C      -44.98510000     -30.61770000     -70.45160000
H      -43.98090000     -30.39230000     -70.30090000
H      -45.45300000     -30.02960000     -69.62700000
C      -46.36320000     -34.95350000     -71.87620000
H      -47.09400000     -35.19220000     -71.10830000
H      -46.37560000     -33.96130000     -72.11320000
C      -44.92430000     -35.39170000     -71.48200000
H      -44.57430000     -36.34240000     -71.84570000
H      -44.34920000     -34.64170000     -71.95650000
C      -45.38550000     -32.09930000     -70.53660000
H      -44.93450000     -32.50570000     -71.51270000
H      -46.49100000     -32.16150000     -70.64590000
C      -44.85380000     -32.80500000     -69.33370000
C      -44.61660000     -32.13240000     -68.09050000
C      -44.58360000     -34.22750000     -69.11650000
H      -44.68330000     -31.06490000     -67.80970000
C      -44.17910000     -34.56200000     -67.83520000
C      -44.63350000     -35.42380000     -69.99200000
C      -44.35670000     -36.56920000     -69.33830000
S      -44.19970000     -33.18070000     -66.75420000
S      -44.03870000     -36.32390000     -67.60060000
H      -44.13970000     -37.51460000     -69.73010000
