40
Properties=species:S:1:pos:R:3 #=T CELL(abcABC):=T 1.889726e+02=T 90.00000=T Traj:=T positionsangstrom=T Step:=T 0=T Bead:=T pbc="F F F"
C      -41.61020000     -33.93790000     -72.35820000
C      -42.38310000     -35.09640000     -72.34060000
C      -43.47940000     -35.30070000     -73.18250000
C      -43.75010000     -34.34590000     -74.17070000
C      -42.89950000     -33.17870000     -74.18530000
C      -41.94070000     -32.93500000     -73.22950000
H      -40.94680000     -33.87320000     -71.53050000
H      -44.15920000     -36.06870000     -73.06790000
H      -42.98000000     -32.48750000     -75.04940000
H      -41.39330000     -31.98780000     -73.35350000
C      -44.87810000     -34.68650000     -75.11640000
H      -44.73450000     -35.67110000     -75.45280000
H      -45.02720000     -34.03130000     -75.92650000
C      -42.05490000     -36.09950000     -71.24450000
H      -41.72510000     -37.03410000     -71.58620000
H      -41.17990000     -35.61170000     -70.69780000
S      -46.56980000     -34.84380000     -74.29380000
S      -43.43130000     -36.52120000     -70.02410000
C      -46.52770000     -33.42200000     -73.13950000
H      -45.59080000     -33.36890000     -72.56960000
H      -46.53530000     -32.47610000     -73.73900000
C      -44.02480000     -34.90840000     -69.22880000
H      -43.13180000     -34.20900000     -69.00910000
H      -44.53540000     -35.25530000     -68.34800000
C      -45.11060000     -34.19650000     -70.12360000
H      -44.71520000     -33.96850000     -71.13400000
H      -45.97190000     -34.83990000     -70.24520000
C      -47.72620000     -33.44550000     -72.18620000
H      -47.82510000     -34.45370000     -71.62180000
H      -48.58640000     -33.53500000     -72.84900000
C      -47.70840000     -32.21080000     -71.20320000
C      -48.65560000     -31.23680000     -71.24710000
C      -46.80910000     -32.08760000     -70.11510000
H      -49.55920000     -31.04690000     -71.84270000
C      -47.14720000     -31.03410000     -69.27860000
C      -45.67980000     -32.83370000     -69.55360000
C      -45.33140000     -32.34780000     -68.33170000
S      -48.44700000     -30.01990000     -70.02220000
S      -46.09810000     -30.86050000     -67.89950000
H      -44.47560000     -32.71260000     -67.73710000
