40
Properties=species:S:1:pos:R:3 #=T CELL(abcABC):=T 1.889726e+02=T 90.00000=T Traj:=T positionsangstrom=T Step:=T 0=T Bead:=T pbc="F F F"
C      -44.34980000     -37.01490000     -70.15080000
C      -44.06240000     -36.03240000     -69.25360000
C      -45.11710000     -35.34750000     -68.55810000
C      -46.43930000     -35.45280000     -68.99380000
C      -46.75360000     -36.42510000     -69.99200000
C      -45.70390000     -37.23520000     -70.48430000
H      -43.61080000     -37.74620000     -70.45640000
H      -44.79940000     -34.55960000     -67.87000000
H      -47.76540000     -36.63310000     -70.24780000
H      -46.12890000     -38.10950000     -71.07300000
C      -47.46540000     -34.65560000     -68.23780000
H      -47.04340000     -33.89300000     -67.62480000
H      -48.05750000     -35.28460000     -67.62730000
C      -42.64300000     -35.72620000     -68.97250000
H      -42.46940000     -35.39120000     -67.97290000
H      -42.08560000     -36.60290000     -69.25940000
S      -48.72200000     -33.89950000     -69.31270000
S      -42.08960000     -34.22930000     -70.08470000
C      -47.81910000     -32.60870000     -70.27270000
H      -48.41730000     -31.69540000     -70.50090000
H      -46.96660000     -32.27330000     -69.65350000
C      -42.77900000     -34.69030000     -71.65160000
H      -42.96540000     -35.72420000     -71.64280000
H      -41.98040000     -34.50820000     -72.34060000
C      -44.04730000     -33.95380000     -72.11480000
H      -44.54910000     -34.66820000     -72.77780000
H      -44.77280000     -33.80890000     -71.30280000
C      -47.35360000     -33.20350000     -71.63510000
H      -48.26630000     -33.52710000     -72.02970000
H      -46.86050000     -34.12730000     -71.38870000
C      -46.70550000     -32.15890000     -72.55430000
C      -47.49860000     -31.15490000     -73.15470000
C      -45.29960000     -31.92060000     -72.94810000
H      -48.55230000     -31.04270000     -72.89960000
C      -45.13360000     -30.73390000     -73.64950000
C      -44.01240000     -32.66930000     -72.84390000
C      -42.93890000     -31.89910000     -73.29140000
S      -46.62250000     -29.84010000     -73.92600000
S      -43.52070000     -30.40210000     -74.01920000
H      -41.88030000     -32.14960000     -73.50030000
