40
Properties=species:S:1:pos:R:3 #=T CELL(abcABC):=T 1.889726e+02=T 90.00000=T Traj:=T positionsangstrom=T Step:=T 0=T Bead:=T pbc="F F F"
C      -46.74520000     -35.56050000     -67.98230000
C      -46.41370000     -36.04690000     -69.24440000
C      -47.31820000     -35.74510000     -70.27590000
C      -48.46670000     -34.96720000     -70.14440000
C      -48.80960000     -34.58030000     -68.82630000
C      -47.96810000     -34.90700000     -67.71500000
H      -46.03110000     -35.85990000     -67.14910000
H      -47.17850000     -36.13380000     -71.25950000
H      -49.73220000     -33.91460000     -68.75040000
H      -48.21640000     -34.55990000     -66.73250000
C      -49.39410000     -34.73300000     -71.35460000
H      -50.21710000     -34.11270000     -71.00100000
H      -49.88450000     -35.69950000     -71.48500000
C      -45.20640000     -36.85800000     -69.57660000
H      -44.44950000     -36.77360000     -68.77440000
H      -45.37940000     -37.93610000     -69.59470000
S      -48.45270000     -34.29010000     -72.86050000
S      -44.35170000     -36.45970000     -71.13290000
C      -47.51080000     -32.65530000     -72.32930000
H      -47.75550000     -31.96080000     -73.18070000
H      -47.97820000     -32.34600000     -71.35680000
C      -43.50130000     -34.90740000     -70.74270000
H      -42.67280000     -35.10470000     -70.11090000
H      -44.11680000     -34.16430000     -70.19110000
C      -43.03940000     -34.32250000     -72.08670000
H      -42.13490000     -34.81110000     -72.33290000
H      -43.79680000     -34.54720000     -72.83070000
C      -46.01470000     -32.90440000     -72.22860000
H      -45.63670000     -33.46260000     -73.07730000
H      -45.78390000     -33.50270000     -71.35960000
C      -45.12080000     -31.63270000     -72.23380000
C      -45.56750000     -30.29520000     -72.40810000
C      -43.68840000     -31.70210000     -72.16470000
H      -46.58630000     -29.97300000     -72.64410000
C      -43.10460000     -30.47180000     -72.18810000
C      -42.75790000     -32.81510000     -72.07440000
C      -41.44130000     -32.36130000     -72.14160000
S      -44.25030000     -29.19230000     -72.28950000
S      -41.32860000     -30.58150000     -72.08190000
H      -40.56600000     -32.95150000     -72.06120000
