40
Properties=species:S:1:pos:R:3 #=T CELL(abcABC):=T 1.889726e+02=T 90.00000=T Traj:=T positionsangstrom=T Step:=T 0=T Bead:=T pbc="F F F"
C      -46.80430000     -35.77350000     -67.98670000
C      -46.35730000     -35.98540000     -69.28000000
C      -47.18610000     -35.63570000     -70.32160000
C      -48.43400000     -35.03490000     -70.15770000
C      -48.91510000     -34.95500000     -68.83630000
C      -48.08820000     -35.34490000     -67.74290000
H      -46.06060000     -35.92090000     -67.11360000
H      -46.86040000     -35.89220000     -71.29920000
H      -50.02610000     -34.65310000     -68.78690000
H      -48.39770000     -35.32750000     -66.72430000
C      -49.35440000     -34.62730000     -71.28650000
H      -49.97830000     -33.74600000     -70.99990000
H      -50.05060000     -35.41800000     -71.64090000
C      -45.11010000     -36.80660000     -69.46030000
H      -44.38130000     -36.64190000     -68.62090000
H      -45.41460000     -37.83970000     -69.52410000
S      -48.39690000     -34.23840000     -72.83020000
S      -44.25950000     -36.47130000     -71.09440000
C      -47.47330000     -32.70670000     -72.30040000
H      -48.02960000     -31.91630000     -72.72090000
H      -47.66400000     -32.67920000     -71.23570000
C      -43.64500000     -34.72490000     -70.83160000
H      -42.87720000     -34.73670000     -70.03780000
H      -44.49380000     -34.08650000     -70.63670000
C      -43.04400000     -34.21760000     -72.11790000
H      -42.11590000     -34.80280000     -72.41290000
H      -43.75830000     -34.34430000     -72.93240000
C      -45.98020000     -32.78560000     -72.58180000
H      -45.98150000     -32.99540000     -73.67430000
H      -45.67720000     -33.73820000     -72.10630000
C      -45.18470000     -31.61120000     -72.20980000
C      -45.62540000     -30.28210000     -72.34870000
C      -43.72140000     -31.73490000     -72.17110000
H      -46.65840000     -30.01630000     -72.18780000
C      -43.15500000     -30.47950000     -72.22340000
C      -42.71830000     -32.76370000     -72.05840000
C      -41.45840000     -32.28500000     -71.89980000
S      -44.26310000     -29.15810000     -72.31360000
S      -41.36550000     -30.55110000     -72.07140000
H      -40.59460000     -32.94670000     -71.83210000
