40
Properties=species:S:1:pos:R:3 #=T CELL(abcABC):=T 1.889726e+02=T 90.00000=T Traj:=T positionsangstrom=T Step:=T 0=T Bead:=T pbc="F F F"
C      -46.93400000     -36.26090000     -67.97300000
C      -46.36390000     -36.24690000     -69.23610000
C      -47.09710000     -35.62030000     -70.28450000
C      -48.45650000     -35.24610000     -70.13690000
C      -49.00890000     -35.30350000     -68.84770000
C      -48.25480000     -35.80610000     -67.75320000
H      -46.30550000     -36.59600000     -67.20910000
H      -46.72740000     -35.50600000     -71.28850000
H      -50.00470000     -35.00700000     -68.60850000
H      -48.76000000     -35.70200000     -66.78150000
C      -49.32740000     -34.81250000     -71.28880000
H      -50.06200000     -34.18000000     -70.80220000
H      -49.87040000     -35.75400000     -71.54970000
C      -44.95450000     -36.77250000     -69.49840000
H      -44.32110000     -36.55020000     -68.56930000
H      -44.90870000     -37.82970000     -69.55380000
S      -48.48910000     -33.93600000     -72.74380000
S      -44.04900000     -36.29950000     -71.03860000
C      -47.13950000     -32.86370000     -71.97550000
H      -47.55640000     -31.89510000     -71.81680000
H      -46.62410000     -33.24860000     -71.10680000
C      -43.65960000     -34.49610000     -70.94880000
H      -43.01090000     -34.07880000     -70.17480000
H      -44.64030000     -34.02360000     -70.78830000
C      -43.05930000     -34.13490000     -72.36790000
H      -42.25910000     -34.81600000     -72.50670000
H      -43.84690000     -34.28620000     -73.15240000
C      -46.07420000     -32.65860000     -73.07360000
H      -46.62100000     -32.51640000     -74.02520000
H      -45.52090000     -33.55390000     -73.26110000
C      -45.11520000     -31.56240000     -72.77610000
C      -45.55200000     -30.25350000     -72.63390000
C      -43.71160000     -31.64930000     -72.47600000
H      -46.52970000     -29.92360000     -73.05440000
C      -43.19150000     -30.43910000     -72.01150000
C      -42.64300000     -32.69220000     -72.39490000
C      -41.48700000     -32.24030000     -71.87540000
S      -44.37660000     -29.14870000     -72.20900000
S      -41.47900000     -30.52400000     -71.62210000
H      -40.68070000     -32.94470000     -71.67970000
