40
Properties=species:S:1:pos:R:3 #=T CELL(abcABC):=T 1.889726e+02=T 90.00000=T Traj:=T positionsangstrom=T Step:=T 0=T Bead:=T pbc="F F F"
C      -46.80990000     -36.18140000     -68.05120000
C      -46.30740000     -36.28020000     -69.33860000
C      -47.08760000     -35.81360000     -70.42040000
C      -48.41220000     -35.41040000     -70.21130000
C      -48.91670000     -35.45790000     -68.91640000
C      -48.16260000     -35.92450000     -67.85750000
H      -46.16440000     -36.39880000     -67.19810000
H      -46.64850000     -35.79260000     -71.42290000
H      -49.91350000     -35.09330000     -68.66910000
H      -48.71510000     -35.98730000     -66.94950000
C      -49.24040000     -34.73890000     -71.33360000
H      -49.89470000     -33.93680000     -70.91710000
H      -49.85350000     -35.49610000     -71.78350000
C      -44.85550000     -36.70310000     -69.42140000
H      -44.21090000     -36.21450000     -68.62250000
H      -44.84680000     -37.74250000     -69.25920000
S      -48.40840000     -34.04000000     -72.76610000
S      -44.00960000     -36.41990000     -71.08310000
C      -47.02020000     -32.93250000     -72.07580000
H      -47.59640000     -32.14390000     -71.55580000
H      -46.51270000     -33.47880000     -71.24730000
C      -43.78680000     -34.56440000     -70.96570000
H      -43.09150000     -34.25320000     -70.20690000
H      -44.80340000     -34.22330000     -70.89650000
C      -43.08170000     -34.17640000     -72.26490000
H      -42.18190000     -34.78470000     -72.24610000
H      -43.59760000     -34.40220000     -73.25790000
C      -46.10670000     -32.45580000     -73.25750000
H      -46.70000000     -31.94400000     -74.02430000
H      -45.54500000     -33.25830000     -73.57260000
C      -45.15290000     -31.41500000     -72.81960000
C      -45.61820000     -30.14370000     -72.79610000
C      -43.77640000     -31.56100000     -72.42410000
H      -46.59220000     -29.79620000     -73.19440000
C      -43.23770000     -30.35450000     -71.96140000
C      -42.78550000     -32.65360000     -72.22440000
C      -41.62910000     -32.20220000     -71.71590000
S      -44.37440000     -29.03750000     -72.12670000
S      -41.63730000     -30.46580000     -71.42530000
H      -40.74190000     -32.78150000     -71.66530000
