40
Properties=species:S:1:pos:R:3 #=T CELL(abcABC):=T 1.889726e+02=T 90.00000=T Traj:=T positionsangstrom=T Step:=T 0=T Bead:=T pbc="F F F"
C      -44.39140000     -37.04900000     -70.34080000
C      -44.04400000     -36.06810000     -69.45640000
C      -44.93280000     -35.26550000     -68.78550000
C      -46.33960000     -35.46120000     -69.01020000
C      -46.74990000     -36.43170000     -69.97390000
C      -45.74910000     -37.21660000     -70.62060000
H      -43.56720000     -37.62330000     -70.72720000
H      -44.65280000     -34.59470000     -67.97480000
H      -47.74450000     -36.67780000     -70.14040000
H      -46.04300000     -37.76180000     -71.46890000
C      -47.44520000     -34.55880000     -68.20770000
H      -46.90070000     -33.79600000     -67.56670000
H      -47.99550000     -35.20150000     -67.50490000
C      -42.57290000     -35.74060000     -69.22000000
H      -42.21640000     -35.53110000     -68.18000000
H      -41.91540000     -36.56360000     -69.53190000
S      -48.66370000     -33.70770000     -69.26250000
S      -42.05780000     -34.22600000     -70.06690000
C      -47.63780000     -32.71760000     -70.43990000
H      -48.15630000     -31.77370000     -70.52060000
H      -46.74830000     -32.47650000     -69.77850000
C      -42.68130000     -34.54430000     -71.82240000
H      -42.69330000     -35.65990000     -72.01150000
H      -41.97330000     -34.14400000     -72.54760000
C      -44.08880000     -34.07250000     -72.06630000
H      -44.57450000     -34.78170000     -72.74150000
H      -44.65880000     -34.12210000     -71.10860000
C      -47.32810000     -33.30880000     -71.75750000
H      -48.22290000     -33.71760000     -72.34840000
H      -46.59180000     -34.14830000     -71.77950000
C      -46.76390000     -32.10890000     -72.55280000
C      -47.59230000     -31.04970000     -72.92010000
C      -45.37970000     -31.93320000     -72.81840000
H      -48.71220000     -30.99280000     -72.92500000
C      -45.20170000     -30.73560000     -73.47840000
C      -44.20240000     -32.72430000     -72.64840000
C      -43.10190000     -32.07120000     -73.14530000
S      -46.69390000     -29.80320000     -73.83770000
S      -43.56210000     -30.55810000     -73.92910000
H      -42.11930000     -32.51380000     -73.12720000
