40
Properties=species:S:1:pos:R:3 #=T CELL(abcABC):=T 1.889726e+02=T 90.00000=T Traj:=T positionsangstrom=T Step:=T 0=T Bead:=T pbc="F F F"
C      -46.32850000     -36.34100000     -68.23730000
C      -45.95970000     -36.67670000     -69.52510000
C      -46.77020000     -36.23360000     -70.58250000
C      -47.95460000     -35.53170000     -70.26440000
C      -48.29790000     -35.20870000     -68.97840000
C      -47.49360000     -35.67460000     -67.90630000
H      -45.64620000     -36.68680000     -67.49240000
H      -46.40020000     -36.45230000     -71.60870000
H      -49.32430000     -34.87210000     -68.67310000
H      -47.90030000     -35.53700000     -66.90820000
C      -48.96460000     -35.19550000     -71.39630000
H      -49.78540000     -34.62240000     -70.98630000
H      -49.40350000     -36.13560000     -71.76150000
C      -44.66480000     -37.42360000     -69.72950000
H      -44.18480000     -37.72060000     -68.78130000
H      -44.95140000     -38.41360000     -70.23060000
S      -48.26370000     -34.23880000     -72.87740000
S      -43.52900000     -36.58440000     -70.96660000
C      -47.09010000     -32.89650000     -72.15380000
H      -47.59050000     -32.16740000     -71.43170000
H      -46.28740000     -33.42030000     -71.56810000
C      -43.65620000     -34.67910000     -70.76490000
H      -42.85110000     -34.29050000     -70.17900000
H      -44.48200000     -34.46210000     -70.07210000
C      -43.77470000     -33.93530000     -72.08000000
H      -43.06450000     -34.34890000     -72.79510000
H      -44.75360000     -34.17360000     -72.50530000
C      -46.52790000     -32.16880000     -73.31390000
H      -47.31480000     -31.52890000     -73.84470000
H      -46.10560000     -32.87910000     -74.04200000
C      -45.53680000     -31.08910000     -72.88350000
C      -45.71880000     -29.71790000     -73.03560000
C      -44.29340000     -31.33510000     -72.12620000
H      -46.66830000     -29.36980000     -73.47410000
C      -43.58820000     -30.17050000     -71.86780000
C      -43.46720000     -32.45680000     -71.88940000
C      -42.27120000     -32.10250000     -71.21580000
S      -44.44640000     -28.73700000     -72.37650000
S      -42.03560000     -30.38710000     -71.19970000
H      -41.40750000     -32.72410000     -70.97760000
