40
Properties=species:S:1:pos:R:3 #=T CELL(abcABC):=T 1.889726e+02=T 90.00000=T Traj:=T positionsangstrom=T Step:=T 0=T Bead:=T pbc="F F F"
C      -45.55720000     -35.97660000     -68.55130000
C      -45.63230000     -36.45380000     -69.84650000
C      -46.81690000     -36.12840000     -70.64840000
C      -47.91390000     -35.42270000     -70.15350000
C      -47.73160000     -35.02650000     -68.81490000
C      -46.58170000     -35.22270000     -68.00910000
H      -44.79610000     -36.33220000     -67.91750000
H      -46.92310000     -36.47800000     -71.65700000
H      -48.45840000     -34.28370000     -68.43280000
H      -46.52110000     -34.75050000     -66.97810000
C      -49.15070000     -35.00400000     -70.96950000
H      -49.66270000     -34.37610000     -70.26350000
H      -49.85850000     -35.81180000     -71.20100000
C      -44.50810000     -37.40220000     -70.34060000
H      -44.04210000     -37.91570000     -69.55420000
H      -44.96930000     -38.17320000     -70.95950000
S      -48.70580000     -34.27460000     -72.61120000
S      -43.22630000     -36.62040000     -71.52910000
C      -47.35070000     -33.04380000     -71.97080000
H      -47.96370000     -32.10160000     -71.67640000
H      -46.66910000     -33.37330000     -71.24550000
C      -43.15030000     -34.87750000     -70.81230000
H      -42.12870000     -34.65230000     -70.64230000
H      -43.64720000     -34.77710000     -69.83010000
C      -43.73560000     -33.95610000     -71.90860000
H      -43.27850000     -34.28920000     -72.86350000
H      -44.83080000     -34.06660000     -71.84830000
C      -46.52680000     -32.57320000     -73.15950000
H      -47.14790000     -32.39070000     -74.01060000
H      -45.81000000     -33.36290000     -73.49240000
C      -45.60660000     -31.34990000     -72.83560000
C      -46.03220000     -30.05350000     -72.96100000
C      -44.36280000     -31.45230000     -72.14450000
H      -46.92730000     -29.69130000     -73.49390000
C      -43.84180000     -30.20350000     -71.83180000
C      -43.51210000     -32.50460000     -71.63340000
C      -42.39470000     -32.04580000     -71.04800000
S      -44.85300000     -28.85920000     -72.40800000
S      -42.30890000     -30.25730000     -71.01480000
H      -41.68730000     -32.60680000     -70.42680000
