40
Properties=species:S:1:pos:R:3 #=T CELL(abcABC):=T 1.889726e+02=T 90.00000=T Traj:=T positionsangstrom=T Step:=T 0=T Bead:=T pbc="F F F"
C      -45.39400000     -35.90190000     -68.61390000
C      -45.63530000     -36.43650000     -69.83480000
C      -46.74330000     -36.06610000     -70.54550000
C      -47.81690000     -35.35660000     -69.95010000
C      -47.57330000     -34.84310000     -68.70500000
C      -46.43100000     -35.19790000     -67.98450000
H      -44.48110000     -36.07330000     -68.14780000
H      -46.91770000     -36.41310000     -71.61330000
H      -48.37800000     -34.34030000     -68.03660000
H      -46.43560000     -34.81590000     -66.89450000
C      -49.04250000     -35.04940000     -70.77260000
H      -49.67060000     -34.29270000     -70.26680000
H      -49.72740000     -35.84900000     -71.02070000
C      -44.63030000     -37.39500000     -70.46320000
H      -44.11270000     -37.87830000     -69.60700000
H      -45.20680000     -38.12050000     -71.15340000
S      -48.58220000     -34.28260000     -72.44710000
S      -43.25360000     -36.72030000     -71.56720000
C      -47.43620000     -32.85310000     -72.10110000
H      -48.02740000     -32.00410000     -71.71880000
H      -46.89520000     -33.18010000     -71.21760000
C      -42.92570000     -34.91660000     -71.14320000
H      -41.92960000     -34.84330000     -71.57450000
H      -42.91220000     -34.76790000     -70.06360000
C      -43.81940000     -33.94330000     -71.91880000
H      -43.92060000     -34.23800000     -72.90990000
H      -44.87730000     -34.15170000     -71.67580000
C      -46.61370000     -32.49650000     -73.32000000
H      -47.20980000     -32.08310000     -74.14270000
H      -46.25510000     -33.47060000     -73.75150000
C      -45.60070000     -31.40550000     -72.97220000
C      -46.03740000     -30.12530000     -73.11000000
C      -44.41740000     -31.45190000     -72.15730000
H      -46.83490000     -29.90860000     -73.80550000
C      -43.94000000     -30.19890000     -71.76720000
C      -43.56200000     -32.50700000     -71.65840000
C      -42.49120000     -32.03400000     -71.01590000
S      -44.93120000     -28.92110000     -72.36100000
S      -42.43240000     -30.29130000     -70.98590000
H      -41.69960000     -32.69440000     -70.62140000
