40
Properties=species:S:1:pos:R:3 #=T CELL(abcABC):=T 1.889726e+02=T 90.00000=T Traj:=T positionsangstrom=T Step:=T 0=T Bead:=T pbc="F F F"
C      -44.50440000     -37.08740000     -70.42070000
C      -44.01980000     -36.01580000     -69.58150000
C      -44.94710000     -35.21490000     -68.89330000
C      -46.34670000     -35.49230000     -68.87100000
C      -46.79760000     -36.41810000     -69.88140000
C      -45.89760000     -37.22360000     -70.59650000
H      -43.83190000     -37.68910000     -70.99800000
H      -44.51450000     -34.32490000     -68.43890000
H      -47.82550000     -36.44930000     -70.10290000
H      -46.32620000     -37.94510000     -71.22260000
C      -47.31030000     -34.68440000     -68.13140000
H      -46.80470000     -33.82500000     -67.69370000
H      -47.71850000     -35.26850000     -67.31200000
C      -42.61840000     -35.83490000     -69.35310000
H      -42.40670000     -35.85110000     -68.23830000
H      -42.03210000     -36.64480000     -69.70080000
S      -48.62430000     -33.86760000     -69.12670000
S      -41.95700000     -34.28470000     -70.13180000
C      -47.50180000     -32.78990000     -70.19190000
H      -47.70760000     -31.76950000     -70.00590000
H      -46.44670000     -32.99370000     -70.00310000
C      -42.66910000     -34.51360000     -71.84450000
H      -42.54860000     -35.58520000     -71.98720000
H      -42.02680000     -33.98070000     -72.55690000
C      -44.08130000     -34.01270000     -72.09730000
H      -44.70170000     -34.70770000     -72.71070000
H      -44.62870000     -33.94760000     -71.19240000
C      -47.63220000     -33.10660000     -71.73360000
H      -48.73940000     -32.98040000     -71.84400000
H      -47.32150000     -34.12860000     -71.80980000
C      -46.87840000     -32.14180000     -72.65340000
C      -47.61760000     -31.07940000     -73.16870000
C      -45.41350000     -31.99200000     -72.95320000
H      -48.70370000     -30.89800000     -73.05830000
C      -45.20440000     -30.74640000     -73.58600000
C      -44.13840000     -32.68630000     -72.73560000
C      -43.08470000     -31.93820000     -73.17260000
S      -46.62930000     -29.75960000     -73.76010000
S      -43.56690000     -30.44110000     -73.85910000
H      -42.07690000     -32.18650000     -72.89680000
