40
Properties=species:S:1:pos:R:3 #=T CELL(abcABC):=T 1.889726e+02=T 90.00000=T Traj:=T positionsangstrom=T Step:=T 0=T Bead:=T pbc="F F F"
C      -44.87750000     -35.62970000     -68.97540000
C      -45.13640000     -36.46530000     -70.00790000
C      -46.38890000     -36.50560000     -70.60720000
C      -47.40930000     -35.59260000     -70.19630000
C      -47.09010000     -34.75790000     -69.06700000
C      -45.84000000     -34.81020000     -68.43970000
H      -43.93870000     -35.73320000     -68.42790000
H      -46.57540000     -37.25690000     -71.31510000
H      -47.95060000     -34.32070000     -68.70190000
H      -45.68940000     -34.15890000     -67.55260000
C      -48.74560000     -35.51830000     -70.77890000
H      -49.45630000     -34.95780000     -70.16310000
H      -49.16150000     -36.52690000     -71.05020000
C      -44.00260000     -37.39650000     -70.51990000
H      -43.22930000     -37.48570000     -69.74520000
H      -44.37740000     -38.41240000     -70.78480000
S      -48.77080000     -34.50010000     -72.24230000
S      -43.21200000     -36.73520000     -72.06550000
C      -47.67330000     -33.08320000     -71.69780000
H      -48.29430000     -32.47650000     -71.00630000
H      -46.87910000     -33.53280000     -71.10590000
C      -43.10270000     -34.89370000     -71.65820000
H      -42.05040000     -34.52360000     -71.73050000
H      -43.40050000     -34.81930000     -70.60130000
C      -43.98490000     -33.95440000     -72.48780000
H      -43.86610000     -34.16740000     -73.56540000
H      -45.05380000     -34.09960000     -72.32820000
C      -47.04640000     -32.23090000     -72.79450000
H      -47.74990000     -31.79140000     -73.50550000
H      -46.31120000     -32.77750000     -73.36490000
C      -46.13220000     -31.17440000     -72.14120000
C      -46.57740000     -29.94920000     -71.75700000
C      -44.72190000     -31.34530000     -71.97240000
H      -47.60280000     -29.71580000     -71.81850000
C      -44.14840000     -30.16240000     -71.52180000
C      -43.71220000     -32.41780000     -72.21370000
C      -42.45210000     -31.92300000     -72.05540000
S      -45.27460000     -28.92690000     -71.17020000
S      -42.41460000     -30.18740000     -71.53580000
H      -41.59950000     -32.48240000     -72.27480000
