40
Properties=species:S:1:pos:R:3 #=T CELL(abcABC):=T 1.889726e+02=T 90.00000=T Traj:=T positionsangstrom=T Step:=T 0=T Bead:=T pbc="F F F"
C      -44.79570000     -32.98640000     -75.12750000
C      -43.72010000     -33.04970000     -74.23130000
C      -43.34830000     -34.21640000     -73.65690000
C      -44.11600000     -35.40720000     -73.79720000
C      -45.19310000     -35.39680000     -74.65520000
C      -45.55620000     -34.13950000     -75.23440000
H      -44.98750000     -32.05910000     -75.69030000
H      -42.53900000     -34.17520000     -72.94970000
H      -45.94130000     -36.12680000     -74.82530000
H      -46.37940000     -34.09660000     -75.84360000
C      -43.67510000     -36.63650000     -73.11550000
H      -42.76330000     -37.15240000     -73.44220000
H      -44.42510000     -37.42720000     -73.28040000
C      -42.71660000     -31.81380000     -74.28700000
H      -41.80740000     -32.21090000     -74.69470000
H      -43.10160000     -31.09190000     -74.92150000
S      -43.55810000     -36.53760000     -71.24450000
S      -42.51020000     -31.03310000     -72.58070000
C      -45.25970000     -35.80620000     -70.80510000
H      -45.63350000     -35.28480000     -71.71840000
H      -46.01300000     -36.54010000     -70.42920000
C      -44.29840000     -30.85650000     -72.12670000
H      -44.96160000     -30.85300000     -73.00310000
H      -44.42610000     -29.85440000     -71.66670000
C      -44.73820000     -31.93280000     -71.04720000
H      -44.68420000     -32.91460000     -71.53550000
H      -43.98340000     -31.99460000     -70.28030000
C      -44.98010000     -35.02470000     -69.54050000
H      -44.08290000     -34.35810000     -69.65820000
H      -44.91440000     -35.68920000     -68.71350000
C      -46.15320000     -34.21070000     -69.10870000
C      -47.08500000     -34.78590000     -68.26750000
C      -46.50640000     -32.83250000     -69.38820000
H      -47.18550000     -35.84250000     -68.03000000
C      -47.63360000     -32.45340000     -68.68280000
C      -46.09270000     -31.81720000     -70.34310000
C      -46.93070000     -30.76240000     -70.37770000
S      -48.35780000     -33.69160000     -67.75500000
S      -48.16620000     -30.83350000     -69.14130000
H      -46.84590000     -29.88870000     -70.98610000
