40
Properties=species:S:1:pos:R:3 #=T CELL(abcABC):=T 1.889726e+02=T 90.00000=T Traj:=T positionsangstrom=T Step:=T 0=T Bead:=T pbc="F F F"
C      -44.98410000     -32.89610000     -75.32400000
C      -43.92950000     -32.94870000     -74.43730000
C      -43.50000000     -34.12410000     -73.89680000
C      -44.35320000     -35.20730000     -73.96770000
C      -45.47980000     -35.17820000     -74.77580000
C      -45.82140000     -33.96030000     -75.50390000
H      -45.15260000     -31.98370000     -75.91920000
H      -42.53040000     -34.09850000     -73.39440000
H      -46.16140000     -36.04210000     -74.73400000
H      -46.56270000     -33.86390000     -76.38320000
C      -44.02870000     -36.56400000     -73.30430000
H      -43.24280000     -37.09460000     -73.85970000
H      -44.85700000     -37.21300000     -73.28650000
C      -43.05430000     -31.71300000     -74.16950000
H      -42.08110000     -31.71250000     -74.64190000
H      -43.53580000     -30.79810000     -74.50600000
S      -43.46140000     -36.34860000     -71.57760000
S      -42.73790000     -31.48790000     -72.37660000
C      -44.80400000     -35.39900000     -70.75400000
H      -45.30190000     -34.68920000     -71.43390000
H      -45.54760000     -36.04720000     -70.44390000
C      -44.40160000     -31.02790000     -71.70320000
H      -44.81620000     -30.17490000     -72.25330000
H      -44.14640000     -30.70000000     -70.72930000
C      -45.46480000     -32.16090000     -71.71600000
H      -45.95130000     -32.16910000     -72.63410000
H      -44.82030000     -33.10290000     -71.53390000
C      -44.37760000     -34.51260000     -69.58080000
H      -43.72140000     -33.72230000     -69.95190000
H      -43.80420000     -35.17260000     -68.86200000
C      -45.56510000     -33.88560000     -68.89270000
C      -45.90830000     -34.29760000     -67.63590000
C      -46.42100000     -32.86260000     -69.43110000
H      -45.41870000     -35.02750000     -66.97060000
C      -47.53600000     -32.66750000     -68.63540000
C      -46.48600000     -32.01030000     -70.58550000
C      -47.54150000     -31.13120000     -70.63120000
S      -47.44860000     -33.59980000     -67.11630000
S      -48.60040000     -31.36660000     -69.18100000
H      -47.74180000     -30.30130000     -71.35000000
