40
Properties=species:S:1:pos:R:3 #=T CELL(abcABC):=T 1.889726e+02=T 90.00000=T Traj:=T positionsangstrom=T Step:=T 0=T Bead:=T pbc="F F F"
C      -44.94450000     -33.42330000     -75.47280000
C      -44.03970000     -33.31860000     -74.44080000
C      -43.69860000     -34.44660000     -73.70260000
C      -44.44410000     -35.68070000     -73.85420000
C      -45.29950000     -35.80370000     -74.97760000
C      -45.50430000     -34.66010000     -75.77170000
H      -45.19480000     -32.55750000     -76.02970000
H      -42.98040000     -34.33430000     -72.89060000
H      -45.67300000     -36.77180000     -75.16570000
H      -46.37350000     -34.61950000     -76.49760000
C      -44.12530000     -36.88930000     -72.98830000
H      -43.40960000     -37.46680000     -73.62060000
H      -45.01660000     -37.49440000     -72.82560000
C      -43.29240000     -32.05840000     -74.11010000
H      -42.34890000     -32.13380000     -74.54980000
H      -43.83540000     -31.21900000     -74.48330000
S      -43.38650000     -36.50750000     -71.34650000
S      -42.92590000     -31.76320000     -72.37330000
C      -45.01690000     -35.73840000     -70.61840000
H      -45.86060000     -35.76340000     -71.34690000
H      -45.28850000     -36.34570000     -69.75250000
C      -44.38630000     -30.91480000     -71.54780000
H      -44.41580000     -29.83630000     -71.83690000
H      -44.26680000     -30.94790000     -70.47190000
C      -45.70930000     -31.62070000     -71.93590000
H      -46.15170000     -31.09530000     -72.78000000
H      -45.56770000     -32.66850000     -72.39680000
C      -44.64280000     -34.23070000     -70.26860000
H      -44.71390000     -33.69920000     -71.14170000
H      -43.63220000     -34.23070000     -69.90110000
C      -45.60980000     -33.62840000     -69.26520000
C      -45.89040000     -34.12380000     -67.98250000
C      -46.41640000     -32.43830000     -69.52820000
H      -45.43220000     -34.98930000     -67.50880000
C      -47.30210000     -32.14270000     -68.51850000
C      -46.65580000     -31.64800000     -70.70360000
C      -47.56350000     -30.67170000     -70.44070000
S      -47.16910000     -33.29480000     -67.16920000
S      -48.35010000     -30.83500000     -68.87410000
H      -47.94340000     -29.91980000     -71.13640000
