40
Properties=species:S:1:pos:R:3 #=T CELL(abcABC):=T 1.889726e+02=T 90.00000=T Traj:=T positionsangstrom=T Step:=T 0=T Bead:=T pbc="F F F"
C      -44.30860000     -31.01620000     -72.03290000
C      -45.37040000     -30.76500000     -71.15880000
C      -45.32260000     -31.32460000     -69.86560000
C      -44.29410000     -32.20600000     -69.48380000
C      -43.29550000     -32.50050000     -70.35700000
C      -43.35800000     -31.95310000     -71.67250000
H      -44.35990000     -30.67410000     -73.07400000
H      -46.04710000     -30.99780000     -69.08930000
H      -42.43980000     -33.14470000     -70.05010000
H      -42.59760000     -32.16740000     -72.37960000
C      -44.38530000     -32.65760000     -68.00980000
H      -45.21550000     -32.03800000     -67.55090000
H      -43.50130000     -32.52560000     -67.30930000
C      -46.53100000     -29.92380000     -71.66660000
H      -47.36790000     -29.71210000     -70.97260000
H      -46.16040000     -28.93240000     -71.97360000
S      -44.89870000     -34.46600000     -67.85500000
S      -47.09610000     -30.63190000     -73.32580000
C      -46.54200000     -34.23750000     -68.65240000
H      -47.32650000     -34.20020000     -67.82920000
H      -46.60550000     -33.28290000     -69.20080000
C      -48.19340000     -32.06140000     -73.01080000
H      -48.45070000     -32.38990000     -74.04070000
H      -49.11420000     -31.60900000     -72.59300000
C      -47.66460000     -33.20490000     -72.08000000
H      -47.39910000     -32.78140000     -71.06960000
H      -48.54950000     -33.97470000     -71.80850000
C      -46.80080000     -35.37990000     -69.61780000
H      -47.75130000     -35.04320000     -70.04350000
H      -46.91420000     -36.35110000     -69.05360000
C      -45.65020000     -35.49820000     -70.61150000
C      -44.55800000     -36.29770000     -70.43840000
C      -45.53350000     -34.73210000     -71.83930000
H      -44.55360000     -37.03750000     -69.66200000
C      -44.35790000     -35.06920000     -72.50060000
C      -46.46970000     -33.90710000     -72.66230000
C      -45.85380000     -33.57660000     -73.87540000
S      -43.34620000     -36.17750000     -71.66770000
S      -44.30420000     -34.30410000     -74.13460000
H      -46.27070000     -33.01960000     -74.65280000
