40
Properties=species:S:1:pos:R:3 #=T CELL(abcABC):=T 1.889726e+02=T 90.00000=T Traj:=T positionsangstrom=T Step:=T 0=T Bead:=T pbc="F F F"
C      -44.51020000     -37.15550000     -70.51120000
C      -44.03100000     -36.09460000     -69.64170000
C      -44.97750000     -35.38420000     -68.91100000
C      -46.36610000     -35.60690000     -69.01270000
C      -46.78570000     -36.66600000     -69.81390000
C      -45.87690000     -37.45780000     -70.62090000
H      -43.83930000     -37.61580000     -71.23120000
H      -44.70170000     -34.52510000     -68.35140000
H      -47.82170000     -37.01960000     -69.79630000
H      -46.23180000     -38.33040000     -71.22040000
C      -47.32350000     -34.83090000     -68.12150000
H      -46.69920000     -34.29630000     -67.39160000
H      -47.98150000     -35.43110000     -67.48020000
C      -42.53570000     -35.88000000     -69.51790000
H      -42.23250000     -35.79830000     -68.43780000
H      -42.02590000     -36.76040000     -69.87680000
S      -48.34570000     -33.70040000     -68.99110000
S      -41.96770000     -34.36030000     -70.41660000
C      -47.21860000     -32.81710000     -70.14810000
H      -47.52230000     -31.83020000     -69.85180000
H      -46.13660000     -33.04400000     -69.89540000
C      -42.83790000     -34.64810000     -72.05220000
H      -42.97800000     -35.73150000     -72.19880000
H      -42.11710000     -34.26660000     -72.70600000
C      -44.19340000     -33.95000000     -72.11370000
H      -44.84840000     -34.51330000     -72.80060000
H      -44.65760000     -33.98910000     -71.10200000
C      -47.46170000     -33.09310000     -71.65550000
H      -48.49430000     -33.19920000     -71.92260000
H      -46.89510000     -33.99600000     -71.92980000
C      -46.90940000     -31.99520000     -72.50960000
C      -47.65640000     -30.91170000     -72.93020000
C      -45.53640000     -31.84340000     -72.82280000
H      -48.72140000     -30.74630000     -72.69540000
C      -45.29090000     -30.63550000     -73.48530000
C      -44.28410000     -32.53790000     -72.63420000
C      -43.17700000     -31.85490000     -73.04480000
S      -46.75430000     -29.75650000     -73.91260000
S      -43.60360000     -30.32390000     -73.66810000
H      -42.15140000     -32.24270000     -73.16080000
