40
Properties=species:S:1:pos:R:3 #=T CELL(abcABC):=T 1.889726e+02=T 90.00000=T Traj:=T positionsangstrom=T Step:=T 0=T Bead:=T pbc="F F F"
C      -45.58320000     -33.56890000     -74.93780000
C      -44.23320000     -33.66900000     -74.51560000
C      -43.80920000     -34.77550000     -73.80010000
C      -44.71020000     -35.85760000     -73.46730000
C      -46.04360000     -35.68040000     -73.89820000
C      -46.41610000     -34.58770000     -74.62880000
H      -45.95570000     -32.56150000     -75.26990000
H      -42.75380000     -35.07990000     -73.55990000
H      -46.79110000     -36.39810000     -73.63500000
H      -47.51510000     -34.51660000     -74.93620000
C      -44.24250000     -36.90990000     -72.56440000
H      -43.39180000     -37.43250000     -72.98960000
H      -45.03630000     -37.60830000     -72.47510000
C      -43.20420000     -32.51310000     -74.80640000
H      -42.42020000     -32.90430000     -75.51470000
H      -43.72920000     -31.60090000     -75.18970000
S      -43.74120000     -36.39730000     -70.80060000
S      -42.39960000     -31.92580000     -73.26230000
C      -45.22570000     -35.45990000     -70.25040000
H      -45.55520000     -34.77540000     -71.10090000
H      -46.06040000     -36.23410000     -70.19380000
C      -43.86790000     -31.40360000     -72.29300000
H      -44.56230000     -31.04610000     -73.07020000
H      -43.46870000     -30.44100000     -71.85480000
C      -44.40880000     -32.39910000     -71.29580000
H      -44.45930000     -33.42130000     -71.76250000
H      -43.62670000     -32.57740000     -70.54070000
C      -44.86480000     -34.68320000     -68.98310000
H      -43.84700000     -34.29900000     -69.00330000
H      -44.65160000     -35.42070000     -68.13260000
C      -45.81820000     -33.62810000     -68.65470000
C      -46.57310000     -33.67170000     -67.49130000
C      -46.18310000     -32.47760000     -69.43430000
H      -46.44260000     -34.38450000     -66.70740000
C      -47.30420000     -31.82380000     -68.99880000
C      -45.73100000     -31.96260000     -70.70130000
C      -46.50010000     -30.87050000     -71.14390000
S      -47.87140000     -32.50450000     -67.51260000
S      -47.80140000     -30.48120000     -69.98290000
H      -46.30210000     -30.28390000     -72.07190000
