40
Properties=species:S:1:pos:R:3 #=T CELL(abcABC):=T 1.889726e+02=T 90.00000=T Traj:=T positionsangstrom=T Step:=T 0=T Bead:=T pbc="F F F"
C      -45.51870000     -33.66090000     -74.89750000
C      -44.23980000     -33.83060000     -74.52510000
C      -43.88430000     -34.95500000     -73.76280000
C      -44.85680000     -35.80250000     -73.25090000
C      -46.18490000     -35.55440000     -73.57480000
C      -46.54030000     -34.51920000     -74.46120000
H      -45.83350000     -32.84110000     -75.59450000
H      -42.86160000     -35.02240000     -73.56100000
H      -46.96170000     -36.23130000     -73.29580000
H      -47.49830000     -34.37520000     -74.76220000
C      -44.57720000     -37.05510000     -72.32880000
H      -43.88810000     -37.81080000     -72.74510000
H      -45.43750000     -37.62160000     -72.18720000
C      -43.15280000     -32.87930000     -74.95150000
H      -42.36980000     -33.57840000     -75.25650000
H      -43.50600000     -32.28280000     -75.84490000
S      -43.86590000     -36.54560000     -70.71960000
S      -42.48150000     -31.85480000     -73.61720000
C      -45.28970000     -35.68400000     -69.89160000
H      -45.89920000     -35.07060000     -70.69180000
H      -46.01120000     -36.48370000     -69.44800000
C      -43.97800000     -31.40340000     -72.55020000
H      -44.90290000     -31.16340000     -73.21680000
H      -43.51150000     -30.47760000     -72.11530000
C      -44.27650000     -32.29770000     -71.41460000
H      -44.46380000     -33.32160000     -71.79160000
H      -43.43790000     -32.46700000     -70.77270000
C      -44.77060000     -34.66640000     -68.85820000
H      -43.76190000     -34.19820000     -69.16620000
H      -44.66930000     -35.21250000     -67.93150000
C      -45.75560000     -33.53350000     -68.63880000
C      -46.61950000     -33.67890000     -67.55210000
C      -46.13540000     -32.41010000     -69.47750000
H      -46.63830000     -34.60370000     -66.96170000
C      -47.26160000     -31.68930000     -69.04020000
C      -45.49110000     -31.79020000     -70.64310000
C      -46.18600000     -30.66850000     -71.02330000
S      -47.89270000     -32.49630000     -67.59650000
S      -47.54260000     -30.30450000     -70.03520000
H      -45.89800000     -30.02190000     -71.81010000
