40
Properties=species:S:1:pos:R:3 #=T CELL(abcABC):=T 1.889726e+02=T 90.00000=T Traj:=T positionsangstrom=T Step:=T 0=T Bead:=T pbc="F F F"
C      -45.81630000     -33.82850000     -74.45620000
C      -44.49420000     -34.18550000     -74.32690000
C      -44.13670000     -35.38670000     -73.71930000
C      -45.07470000     -36.26100000     -73.17490000
C      -46.44340000     -35.90830000     -73.34720000
C      -46.75030000     -34.70710000     -73.88630000
H      -46.04640000     -32.86510000     -74.91590000
H      -43.07270000     -35.71930000     -73.75060000
H      -47.24940000     -36.61480000     -73.07350000
H      -47.81010000     -34.35540000     -73.89110000
C      -44.63930000     -37.39840000     -72.24350000
H      -43.88270000     -38.08360000     -72.68460000
H      -45.44770000     -38.00740000     -71.71790000
C      -43.43930000     -33.22750000     -74.78450000
H      -42.73890000     -33.81310000     -75.31190000
H      -43.96940000     -32.54310000     -75.41750000
S      -43.69680000     -36.51300000     -70.84500000
S      -42.46890000     -32.42130000     -73.44300000
C      -44.95050000     -35.29330000     -70.20460000
H      -45.36550000     -34.78320000     -71.05280000
H      -45.80440000     -35.77010000     -69.75830000
C      -43.75210000     -31.37410000     -72.72470000
H      -44.49130000     -31.42530000     -73.51430000
H      -43.37640000     -30.35470000     -72.63220000
C      -44.33510000     -31.96240000     -71.41520000
H      -44.49600000     -33.00560000     -71.55350000
H      -43.45950000     -32.04930000     -70.80180000
C      -44.46980000     -34.27310000     -69.20730000
H      -43.58670000     -33.68890000     -69.49290000
H      -44.36110000     -34.78120000     -68.28180000
C      -45.68430000     -33.36950000     -68.85600000
C      -46.54850000     -33.57870000     -67.81910000
C      -46.03970000     -32.16460000     -69.65820000
H      -46.63890000     -34.47450000     -67.26670000
C      -47.20160000     -31.53190000     -69.10950000
C      -45.46030000     -31.35030000     -70.74400000
C      -46.18660000     -30.27760000     -71.08290000
S      -47.82180000     -32.29550000     -67.66630000
S      -47.52580000     -30.00070000     -70.05060000
H      -45.94140000     -29.51800000     -71.85300000
