40
Properties=species:S:1:pos:R:3 #=T CELL(abcABC):=T 1.889726e+02=T 90.00000=T Traj:=T positionsangstrom=T Step:=T 0=T Bead:=T pbc="F F F"
C      -44.84830000     -30.83560000     -71.97460000
C      -46.04320000     -30.76200000     -71.21610000
C      -45.93480000     -31.17670000     -69.88010000
C      -44.77130000     -31.81110000     -69.29660000
C      -43.72050000     -32.05230000     -70.24560000
C      -43.74100000     -31.55490000     -71.55910000
H      -44.75710000     -30.33090000     -72.96030000
H      -46.81210000     -30.94150000     -69.24890000
H      -42.82690000     -32.70600000     -69.82350000
H      -42.78370000     -31.72120000     -72.05290000
C      -44.76320000     -32.14170000     -67.85320000
H      -45.70310000     -31.80060000     -67.38200000
H      -43.83730000     -31.87750000     -67.40520000
C      -47.37920000     -30.25950000     -71.76090000
H      -48.06950000     -29.97400000     -70.92260000
H      -47.11090000     -29.42550000     -72.41410000
S      -44.64410000     -34.00530000     -67.52200000
S      -48.35140000     -31.33640000     -72.99880000
C      -46.01640000     -34.71270000     -68.56280000
H      -46.79960000     -35.07680000     -67.97750000
H      -46.49040000     -33.87410000     -69.12640000
C      -48.53760000     -33.00460000     -72.30330000
H      -48.85940000     -33.59190000     -73.17500000
H      -49.33250000     -32.94510000     -71.52840000
C      -47.29690000     -33.67550000     -71.65990000
H      -46.88440000     -33.15970000     -70.82150000
H      -47.72070000     -34.61850000     -71.26020000
C      -45.59580000     -35.79560000     -69.56660000
H      -46.60310000     -36.20380000     -69.94770000
H      -45.11710000     -36.59290000     -68.96820000
C      -44.71920000     -35.49580000     -70.73560000
C      -43.38790000     -35.93160000     -70.76910000
C      -44.97750000     -34.76910000     -71.95760000
H      -42.85820000     -36.56130000     -69.97220000
C      -43.92220000     -34.79400000     -72.93040000
C      -46.16650000     -34.07540000     -72.53600000
C      -45.95990000     -33.79640000     -73.87830000
S      -42.54730000     -35.63090000     -72.28300000
S      -44.40880000     -34.32660000     -74.58870000
H      -46.74810000     -33.43010000     -74.46620000
