40
Properties=species:S:1:pos:R:3 #=T CELL(abcABC):=T 1.889726e+02=T 90.00000=T Traj:=T positionsangstrom=T Step:=T 0=T Bead:=T pbc="F F F"
C      -46.07580000     -32.14860000     -68.02750000
C      -45.41250000     -33.35840000     -68.17880000
C      -44.01270000     -33.39720000     -68.35870000
C      -43.32890000     -32.25320000     -68.57780000
C      -43.86950000     -31.03250000     -68.24730000
C      -45.27440000     -30.97980000     -67.96410000
H      -47.19940000     -31.98680000     -68.07160000
H      -43.49170000     -34.34150000     -68.33240000
H      -43.29660000     -30.08650000     -68.36780000
H      -45.78240000     -30.01670000     -67.86760000
C      -41.87340000     -32.26030000     -69.06000000
H      -41.33470000     -33.06700000     -68.53970000
H      -41.34110000     -31.38570000     -68.80620000
C      -46.05580000     -34.72820000     -68.06530000
H      -45.46410000     -35.45980000     -68.47540000
H      -46.16240000     -34.92450000     -66.93980000
S      -41.78990000     -32.40020000     -70.92680000
S      -47.73680000     -34.80470000     -68.73590000
C      -42.52910000     -34.10020000     -71.32990000
H      -41.90440000     -34.49290000     -72.20070000
H      -42.31500000     -34.68220000     -70.44680000
C      -47.55710000     -34.23680000     -70.51710000
H      -46.71290000     -33.50720000     -70.50700000
H      -48.52900000     -33.75280000     -70.80670000
C      -47.24750000     -35.42910000     -71.52840000
H      -46.24680000     -35.87400000     -71.16260000
H      -48.00880000     -36.17590000     -71.41720000
C      -44.02960000     -34.13670000     -71.61300000
H      -44.54930000     -33.85330000     -70.72780000
H      -44.18410000     -35.22190000     -71.71860000
C      -44.62500000     -33.52980000     -72.83090000
C      -43.97860000     -32.69800000     -73.76480000
C      -45.93570000     -33.88640000     -73.25910000
H      -42.93090000     -32.37660000     -73.64930000
C      -46.25270000     -33.30750000     -74.47010000
C      -47.04680000     -34.77670000     -72.85150000
C      -48.05040000     -34.86520000     -73.80050000
S      -45.04370000     -32.23110000     -75.11020000
S      -47.77500000     -33.80810000     -75.19750000
H      -48.82920000     -35.61660000     -73.77210000
