40
Properties=species:S:1:pos:R:3 #=T CELL(abcABC):=T 1.889726e+02=T 90.00000=T Traj:=T positionsangstrom=T Step:=T 0=T Bead:=T pbc="F F F"
C      -46.24090000     -32.50970000     -67.71810000
C      -45.54670000     -33.68840000     -68.01100000
C      -44.24700000     -33.63580000     -68.55900000
C      -43.54720000     -32.36240000     -68.66760000
C      -44.29820000     -31.20260000     -68.37260000
C      -45.61130000     -31.29720000     -67.94360000
H      -47.25430000     -32.73140000     -67.39720000
H      -43.71130000     -34.58130000     -68.64800000
H      -43.82330000     -30.23750000     -68.50050000
H      -46.22200000     -30.40090000     -67.92510000
C      -42.06730000     -32.22640000     -69.17630000
H      -41.54430000     -33.14350000     -68.98620000
H      -41.55610000     -31.41590000     -68.66510000
C      -46.18410000     -35.07560000     -67.78640000
H      -45.54100000     -35.89820000     -68.08280000
H      -46.38360000     -35.26580000     -66.81370000
S      -42.06090000     -31.92750000     -71.08270000
S      -47.84500000     -35.07830000     -68.73830000
C      -42.20310000     -33.69870000     -71.51340000
H      -41.49960000     -33.95620000     -72.32740000
H      -41.83180000     -34.18880000     -70.55000000
C      -47.36800000     -34.30440000     -70.37260000
H      -46.45320000     -33.67970000     -70.29020000
H      -48.29140000     -33.74270000     -70.56170000
C      -47.00190000     -35.31850000     -71.42640000
H      -46.06310000     -35.85010000     -71.09240000
H      -47.85730000     -36.11140000     -71.36370000
C      -43.65470000     -34.19910000     -71.76940000
H      -44.30700000     -33.99190000     -70.87690000
H      -43.54990000     -35.30290000     -71.87370000
C      -44.39470000     -33.53770000     -72.90850000
C      -43.84020000     -32.55870000     -73.72280000
C      -45.72190000     -33.89600000     -73.33770000
H      -42.82110000     -32.18990000     -73.57620000
C      -46.10680000     -33.32770000     -74.55700000
C      -46.83460000     -34.70630000     -72.84990000
C      -47.94040000     -34.59410000     -73.64920000
S      -44.84630000     -32.19390000     -75.10710000
S      -47.74480000     -33.63550000     -75.11030000
H      -48.87580000     -35.06210000     -73.34710000
