40
Properties=species:S:1:pos:R:3 #=T CELL(abcABC):=T 1.889726e+02=T 90.00000=T Traj:=T positionsangstrom=T Step:=T 0=T Bead:=T pbc="F F F"
C      -46.43820000     -32.56890000     -67.55620000
C      -45.70620000     -33.71520000     -67.97330000
C      -44.39440000     -33.43270000     -68.45210000
C      -43.76420000     -32.18840000     -68.52040000
C      -44.52860000     -31.07300000     -68.10650000
C      -45.82470000     -31.30720000     -67.60510000
H      -47.42610000     -32.61390000     -67.20550000
H      -43.78350000     -34.30910000     -68.69830000
H      -44.20100000     -30.02890000     -68.28020000
H      -46.34920000     -30.42820000     -67.18340000
C      -42.33270000     -31.98530000     -68.94520000
H      -41.67140000     -32.69900000     -68.51250000
H      -42.01450000     -31.00120000     -68.67900000
C      -46.19170000     -35.12300000     -67.76220000
H      -45.54900000     -35.90170000     -67.84490000
H      -46.68420000     -35.26840000     -66.82490000
S      -42.16350000     -31.96870000     -70.75930000
S      -47.54440000     -35.59720000     -68.88990000
C      -42.24350000     -33.72320000     -71.49470000
H      -41.48120000     -33.75150000     -72.33140000
H      -41.87780000     -34.47860000     -70.79580000
C      -47.60300000     -34.68450000     -70.43960000
H      -47.34200000     -33.65770000     -70.28980000
H      -48.69380000     -34.74970000     -70.73090000
C      -46.64870000     -35.28120000     -71.57980000
H      -45.59830000     -35.39920000     -71.22050000
H      -47.05760000     -36.29370000     -71.86710000
C      -43.66170000     -34.06780000     -71.93260000
H      -44.33800000     -34.02420000     -71.09830000
H      -43.68920000     -35.13240000     -72.17770000
C      -44.25940000     -33.51520000     -73.16440000
C      -43.66290000     -32.74460000     -74.09850000
C      -45.64600000     -33.87330000     -73.50600000
H      -42.63980000     -32.40900000     -74.11850000
C      -46.00480000     -33.28020000     -74.68910000
C      -46.77260000     -34.45410000     -72.83920000
C      -47.94390000     -34.15290000     -73.44530000
S      -44.71610000     -32.32090000     -75.48280000
S      -47.71230000     -33.34620000     -74.98900000
H      -48.91170000     -34.48460000     -73.14560000
