40
Properties=species:S:1:pos:R:3 #=T CELL(abcABC):=T 1.889726e+02=T 90.00000=T Traj:=T positionsangstrom=T Step:=T 0=T Bead:=T pbc="F F F"
C      -46.38510000     -33.24600000     -67.39920000
C      -45.64210000     -34.07530000     -68.25170000
C      -44.37720000     -33.64240000     -68.75880000
C      -43.95050000     -32.35830000     -68.46060000
C      -44.77400000     -31.52530000     -67.65150000
C      -45.99280000     -31.94130000     -67.13970000
H      -47.36070000     -33.61650000     -66.94890000
H      -43.92200000     -34.34370000     -69.45200000
H      -44.50080000     -30.55570000     -67.38520000
H      -46.63950000     -31.32950000     -66.55950000
C      -42.64420000     -31.91550000     -68.99380000
H      -41.87310000     -32.64790000     -68.60820000
H      -42.42030000     -30.92270000     -68.59140000
C      -46.02240000     -35.54650000     -68.44720000
H      -45.18100000     -36.02670000     -69.08530000
H      -45.95690000     -35.99530000     -67.37160000
S      -42.57090000     -31.80800000     -70.84780000
S      -47.74160000     -35.94000000     -69.05590000
C      -42.26390000     -33.54950000     -71.35940000
H      -41.43960000     -33.45020000     -72.09490000
H      -41.88600000     -34.18070000     -70.50890000
C      -47.89140000     -34.83320000     -70.52920000
H      -47.60080000     -33.74680000     -70.32520000
H      -48.91940000     -34.81800000     -70.87540000
C      -46.90270000     -35.22880000     -71.70290000
H      -45.94060000     -35.46520000     -71.30510000
H      -47.25340000     -36.11870000     -72.22870000
C      -43.49960000     -34.23240000     -71.92460000
H      -44.30230000     -34.18280000     -71.21600000
H      -43.31570000     -35.32050000     -72.12950000
C      -44.07710000     -33.59080000     -73.16510000
C      -43.32020000     -32.94560000     -74.12060000
C      -45.57370000     -33.55340000     -73.33590000
H      -42.25100000     -33.04160000     -74.36750000
C      -45.76240000     -32.70430000     -74.41310000
C      -46.76520000     -34.09630000     -72.79470000
C      -47.86690000     -33.77620000     -73.58810000
S      -44.35150000     -32.12590000     -75.29430000
S      -47.43010000     -32.66260000     -74.90540000
H      -48.88910000     -34.07650000     -73.39860000
