40
Properties=species:S:1:pos:R:3 #=T CELL(abcABC):=T 1.889726e+02=T 90.00000=T Traj:=T positionsangstrom=T Step:=T 0=T Bead:=T pbc="F F F"
C      -46.46720000     -33.64660000     -67.22430000
C      -45.68340000     -34.59810000     -67.94760000
C      -44.38320000     -34.30390000     -68.33310000
C      -44.04770000     -32.93500000     -68.24170000
C      -44.83500000     -31.99430000     -67.52720000
C      -46.07120000     -32.31880000     -66.98800000
H      -47.54540000     -34.01380000     -67.02430000
H      -43.73850000     -34.97470000     -68.90420000
H      -44.50560000     -30.99690000     -67.36710000
H      -46.76170000     -31.59790000     -66.49450000
C      -42.72050000     -32.50880000     -68.84930000
H      -41.94900000     -33.30320000     -68.75430000
H      -42.37010000     -31.58010000     -68.32510000
C      -46.15100000     -35.95180000     -68.34360000
H      -45.39060000     -36.58930000     -68.67890000
H      -46.53930000     -36.49860000     -67.51960000
S      -42.85520000     -32.03130000     -70.65890000
S      -47.65440000     -35.70950000     -69.43310000
C      -42.26040000     -33.56540000     -71.35070000
H      -41.31990000     -33.50390000     -71.90790000
H      -41.94120000     -34.14680000     -70.48690000
C      -47.15270000     -34.49880000     -70.73980000
H      -46.33110000     -33.94330000     -70.35860000
H      -47.91240000     -33.79660000     -70.99780000
C      -46.77110000     -35.07620000     -72.05330000
H      -45.82320000     -35.64670000     -72.03770000
H      -47.51530000     -35.81350000     -72.34300000
C      -43.37010000     -34.27680000     -72.27080000
H      -44.12950000     -34.78280000     -71.70750000
H      -42.85920000     -35.10770000     -72.73050000
C      -44.05520000     -33.32140000     -73.16060000
C      -43.42610000     -32.35490000     -73.79760000
C      -45.47780000     -33.31360000     -73.49080000
H      -42.38460000     -32.24560000     -73.84460000
C      -45.80160000     -32.42700000     -74.49240000
C      -46.69310000     -34.06080000     -73.14840000
C      -47.76220000     -33.67960000     -73.90390000
S      -44.43000000     -31.45380000     -74.98020000
S      -47.43370000     -32.47460000     -75.06780000
H      -48.68600000     -34.21040000     -73.86680000
