40
Properties=species:S:1:pos:R:3 #=T CELL(abcABC):=T 1.889726e+02=T 90.00000=T Traj:=T positionsangstrom=T Step:=T 0=T Bead:=T pbc="F F F"
C      -46.46540000     -33.76310000     -67.04820000
C      -45.83160000     -34.69700000     -67.94680000
C      -44.56390000     -34.39510000     -68.43440000
C      -43.97470000     -33.14490000     -68.05430000
C      -44.61830000     -32.27470000     -67.20870000
C      -45.93820000     -32.51670000     -66.78800000
H      -47.52580000     -33.98040000     -66.70200000
H      -44.01140000     -35.02690000     -69.12260000
H      -44.17500000     -31.31830000     -67.00590000
H      -46.49620000     -31.68030000     -66.34880000
C      -42.60950000     -32.79900000     -68.60650000
H      -41.94000000     -33.69200000     -68.65680000
H      -42.11820000     -32.03700000     -67.88480000
C      -46.42600000     -36.01230000     -68.29600000
H      -45.65100000     -36.82700000     -68.41120000
H      -47.12200000     -36.42460000     -67.47760000
S      -42.51380000     -32.09720000     -70.31260000
S      -47.46820000     -36.10360000     -69.87430000
C      -42.43800000     -33.67460000     -71.42500000
H      -41.67240000     -33.44910000     -72.19090000
H      -42.16410000     -34.49200000     -70.67370000
C      -46.83460000     -34.81610000     -70.91850000
H      -45.80870000     -34.60510000     -70.50360000
H      -47.47120000     -33.94210000     -70.71090000
C      -46.82200000     -35.14520000     -72.50100000
H      -45.92980000     -35.80380000     -72.78100000
H      -47.67120000     -35.82320000     -72.77760000
C      -43.68770000     -33.97570000     -72.15840000
H      -44.40600000     -34.38840000     -71.43760000
H      -43.35690000     -34.90130000     -72.75990000
C      -44.25150000     -32.99020000     -73.09330000
C      -43.53750000     -31.99510000     -73.66860000
C      -45.62920000     -33.03770000     -73.53340000
H      -42.56930000     -31.71570000     -73.41680000
C      -45.90220000     -32.09110000     -74.53670000
C      -46.76920000     -33.90660000     -73.31890000
C      -47.80710000     -33.68420000     -74.16000000
S      -44.48320000     -31.06860000     -74.82660000
S      -47.50660000     -32.31670000     -75.19820000
H      -48.74260000     -34.25010000     -74.18930000
