40
Properties=species:S:1:pos:R:3 #=T CELL(abcABC):=T 1.889726e+02=T 90.00000=T Traj:=T positionsangstrom=T Step:=T 0=T Bead:=T pbc="F F F"
C      -45.86680000     -31.06810000     -70.81820000
C      -47.00350000     -31.70250000     -70.31120000
C      -46.89630000     -32.43130000     -69.12560000
C      -45.64820000     -32.62220000     -68.46670000
C      -44.48780000     -32.20800000     -69.11750000
C      -44.60850000     -31.37440000     -70.32230000
H      -45.95460000     -30.57530000     -71.74200000
H      -47.81640000     -32.94990000     -68.83360000
H      -43.52580000     -32.45770000     -68.60350000
H      -43.64810000     -31.06630000     -70.81250000
C      -45.60260000     -33.59500000     -67.35610000
H      -46.53820000     -33.71130000     -66.84070000
H      -44.95880000     -33.27270000     -66.51450000
C      -48.34830000     -31.46070000     -71.08970000
H      -49.05170000     -32.05870000     -70.58740000
H      -48.62190000     -30.40980000     -70.94150000
S      -45.01690000     -35.31720000     -67.79220000
S      -48.28000000     -31.61750000     -72.95270000
C      -45.81200000     -35.61760000     -69.47640000
H      -46.59780000     -36.39630000     -69.31950000
H      -46.37970000     -34.64680000     -69.67190000
C      -48.16510000     -33.44670000     -73.20600000
H      -48.24580000     -33.57160000     -74.31680000
H      -49.05700000     -33.74620000     -72.86850000
C      -47.03860000     -34.18670000     -72.60920000
H      -47.06410000     -34.02160000     -71.47520000
H      -47.20130000     -35.26080000     -72.70510000
C      -44.88500000     -36.09530000     -70.61860000
H      -45.56360000     -36.50940000     -71.37550000
H      -44.15720000     -36.86890000     -70.35660000
C      -44.04780000     -34.96630000     -71.31430000
C      -42.66190000     -34.91560000     -71.11870000
C      -44.52110000     -34.17150000     -72.45030000
H      -42.13600000     -35.49020000     -70.31340000
C      -43.41620000     -33.59290000     -73.03610000
C      -45.71060000     -33.86930000     -73.21630000
C      -45.48040000     -33.10400000     -74.32400000
S      -41.83880000     -33.86640000     -72.29000000
S      -43.80180000     -32.73380000     -74.53380000
H      -46.22860000     -32.86320000     -75.01520000
