40
Properties=species:S:1:pos:R:3 #=T CELL(abcABC):=T 1.889726e+02=T 90.00000=T Traj:=T positionsangstrom=T Step:=T 0=T Bead:=T pbc="F F F"
C      -45.86680000     -31.35280000     -71.09440000
C      -47.01510000     -31.80790000     -70.49830000
C      -46.93990000     -32.40840000     -69.27260000
C      -45.73120000     -32.56200000     -68.61130000
C      -44.49140000     -32.16300000     -69.27210000
C      -44.58630000     -31.51190000     -70.50470000
H      -46.03040000     -30.73660000     -71.95560000
H      -47.84040000     -32.84110000     -68.83030000
H      -43.52570000     -32.42330000     -68.78820000
H      -43.76370000     -31.13240000     -71.11000000
C      -45.70490000     -33.52110000     -67.39540000
H      -46.73380000     -33.61610000     -66.97980000
H      -44.99450000     -33.13050000     -66.71260000
C      -48.37770000     -31.49700000     -71.11140000
H      -49.23760000     -32.03110000     -70.74910000
H      -48.58550000     -30.43470000     -70.98560000
S      -45.06670000     -35.21290000     -67.94040000
S      -48.36790000     -31.71490000     -72.95060000
C      -45.82530000     -35.58320000     -69.52900000
H      -46.62380000     -36.25420000     -69.34990000
H      -46.26080000     -34.70220000     -69.90890000
C      -48.31310000     -33.57700000     -73.10010000
H      -48.42870000     -33.76230000     -74.18040000
H      -49.14820000     -34.06620000     -72.49140000
C      -46.96270000     -34.27250000     -72.64670000
H      -46.90400000     -34.34760000     -71.57910000
H      -47.12490000     -35.29040000     -73.03270000
C      -44.87120000     -36.12000000     -70.65370000
H      -45.53620000     -36.67990000     -71.37660000
H      -44.25770000     -37.00240000     -70.25850000
C      -44.07020000     -35.00460000     -71.28500000
C      -42.68930000     -35.02730000     -71.07350000
C      -44.43560000     -34.20500000     -72.42370000
H      -42.15720000     -35.50190000     -70.22790000
C      -43.27920000     -33.58130000     -72.95120000
C      -45.61120000     -33.81610000     -73.16030000
C      -45.42170000     -32.90270000     -74.11400000
S      -41.77940000     -33.88500000     -72.10610000
S      -43.70500000     -32.52380000     -74.27570000
H      -46.28030000     -32.44420000     -74.60880000
