40
Properties=species:S:1:pos:R:3 #=T CELL(abcABC):=T 1.889726e+02=T 90.00000=T Traj:=T positionsangstrom=T Step:=T 0=T Bead:=T pbc="F F F"
C      -44.47790000     -37.25440000     -70.52080000
C      -43.81510000     -36.30580000     -69.76830000
C      -44.60530000     -35.39650000     -68.95470000
C      -45.99890000     -35.40690000     -68.93540000
C      -46.68430000     -36.43300000     -69.67800000
C      -45.89970000     -37.35490000     -70.32380000
H      -43.88910000     -38.09080000     -70.95410000
H      -43.99340000     -34.80490000     -68.26600000
H      -47.74360000     -36.38890000     -69.78850000
H      -46.28370000     -38.23680000     -70.77890000
C      -46.80640000     -34.54720000     -67.96480000
H      -46.06800000     -33.88210000     -67.48060000
H      -47.23790000     -35.18580000     -67.22090000
C      -42.35200000     -36.12600000     -69.78910000
H      -42.07060000     -35.82680000     -68.80190000
H      -41.90650000     -37.02050000     -70.04410000
S      -48.24390000     -33.77670000     -68.82050000
S      -41.91050000     -34.80340000     -71.04150000
C      -47.48010000     -32.49970000     -69.91580000
H      -47.86810000     -31.51670000     -69.66260000
H      -46.41390000     -32.49450000     -69.67840000
C      -43.22790000     -34.88090000     -72.29470000
H      -43.52130000     -35.94000000     -72.39680000
H      -42.86620000     -34.60680000     -73.21890000
C      -44.53180000     -34.01790000     -71.95480000
H      -45.44600000     -34.53610000     -72.25570000
H      -44.58490000     -33.94670000     -70.85580000
C      -47.73360000     -32.80340000     -71.41520000
H      -48.81570000     -33.07300000     -71.46710000
H      -47.28960000     -33.76740000     -71.70940000
C      -47.14650000     -31.68770000     -72.32090000
C      -47.71540000     -30.45750000     -72.60580000
C      -45.69220000     -31.69580000     -72.71170000
H      -48.68760000     -30.18300000     -72.29560000
C      -45.32320000     -30.56590000     -73.38490000
C      -44.58240000     -32.68180000     -72.62010000
C      -43.47000000     -32.16960000     -73.15680000
S      -46.67390000     -29.44280000     -73.72650000
S      -43.59430000     -30.55980000     -73.92240000
H      -42.48290000     -32.63560000     -73.21970000
