40
Properties=species:S:1:pos:R:3 #=T CELL(abcABC):=T 1.889726e+02=T 90.00000=T Traj:=T positionsangstrom=T Step:=T 0=T Bead:=T pbc="F F F"
C      -46.77980000     -31.14480000     -71.00330000
C      -47.62680000     -32.14770000     -70.68470000
C      -47.36380000     -32.92220000     -69.54780000
C      -46.20670000     -32.81340000     -68.78470000
C      -45.24470000     -31.87030000     -69.18280000
C      -45.52880000     -31.04860000     -70.24490000
H      -46.82120000     -30.59130000     -71.94850000
H      -48.09970000     -33.56670000     -69.22130000
H      -44.31520000     -31.77170000     -68.67300000
H      -44.77920000     -30.42780000     -70.69190000
C      -45.92270000     -33.77160000     -67.65620000
H      -46.83010000     -34.14640000     -67.15370000
H      -45.45980000     -33.28660000     -66.78670000
C      -48.88560000     -32.40970000     -71.54100000
H      -49.25680000     -33.39110000     -71.27360000
H      -49.71500000     -31.62800000     -71.32770000
S      -44.83710000     -35.17900000     -68.24980000
S      -48.49460000     -32.25630000     -73.37980000
C      -45.73400000     -35.69370000     -69.78880000
H      -46.24970000     -36.53360000     -69.50960000
H      -46.31320000     -34.85920000     -70.15530000
C      -47.71220000     -33.88120000     -73.86410000
H      -47.47980000     -33.67740000     -74.96270000
H      -48.47730000     -34.65470000     -73.70170000
C      -46.58160000     -34.35670000     -72.95710000
H      -46.99580000     -34.44160000     -71.99970000
H      -46.33180000     -35.38980000     -73.38790000
C      -44.75280000     -36.16520000     -70.86050000
H      -45.33520000     -36.45350000     -71.74970000
H      -44.21600000     -37.14760000     -70.59760000
C      -43.72920000     -35.12670000     -71.34270000
C      -42.41110000     -35.15370000     -70.99590000
C      -44.05280000     -34.07390000     -72.25280000
H      -41.86880000     -35.79900000     -70.35060000
C      -43.01950000     -33.18080000     -72.51440000
C      -45.25120000     -33.53400000     -72.94630000
C      -45.05380000     -32.34810000     -73.54020000
S      -41.56050000     -33.78160000     -71.71820000
S      -43.37420000     -31.73940000     -73.40200000
H      -45.80690000     -32.05120000     -74.22500000
