40
Properties=species:S:1:pos:R:3 #=T CELL(abcABC):=T 1.889726e+02=T 90.00000=T Traj:=T positionsangstrom=T Step:=T 0=T Bead:=T pbc="F F F"
C      -46.89550000     -31.16080000     -70.72330000
C      -47.81190000     -32.17630000     -70.60050000
C      -47.57210000     -33.15610000     -69.60160000
C      -46.41350000     -33.16340000     -68.77870000
C      -45.54010000     -32.03600000     -68.93840000
C      -45.76630000     -31.09530000     -69.92320000
H      -47.15550000     -30.43710000     -71.51550000
H      -48.31480000     -33.99690000     -69.62380000
H      -44.64710000     -31.95000000     -68.32080000
H      -44.99390000     -30.32330000     -69.97590000
C      -46.11060000     -34.23270000     -67.81450000
H      -47.02850000     -34.87560000     -67.57520000
H      -45.82420000     -33.90940000     -66.82750000
C      -48.93230000     -32.28080000     -71.54960000
H      -49.46950000     -33.20750000     -71.35190000
H      -49.60660000     -31.37820000     -71.40790000
S      -44.65560000     -35.31110000     -68.26220000
S      -48.39010000     -32.22920000     -73.31740000
C      -45.19950000     -36.04860000     -69.84090000
H      -45.59670000     -37.09640000     -69.59510000
H      -45.97650000     -35.38770000     -70.28050000
C      -47.80990000     -33.92150000     -73.72290000
H      -47.43090000     -33.80680000     -74.68320000
H      -48.61260000     -34.68090000     -73.71370000
C      -46.66300000     -34.48370000     -72.82100000
H      -46.86710000     -34.34380000     -71.78070000
H      -46.48970000     -35.58920000     -73.01450000
C      -44.13570000     -36.23470000     -70.96560000
H      -44.54370000     -36.63540000     -71.87640000
H      -43.42680000     -37.05380000     -70.67710000
C      -43.44710000     -34.91880000     -71.27050000
C      -42.11060000     -34.61460000     -70.94710000
C      -44.03580000     -33.97780000     -72.24540000
H      -41.51350000     -35.23250000     -70.26730000
C      -43.02830000     -33.02860000     -72.60180000
C      -45.30140000     -33.72700000     -72.92990000
C      -45.18150000     -32.61170000     -73.76890000
S      -41.61510000     -33.14160000     -71.73540000
S      -43.60110000     -31.74190000     -73.70320000
H      -45.83870000     -32.23560000     -74.60770000
