40
Properties=species:S:1:pos:R:3 #=T CELL(abcABC):=T 1.889726e+02=T 90.00000=T Traj:=T positionsangstrom=T Step:=T 0=T Bead:=T pbc="F F F"
C      -46.82190000     -31.34850000     -70.77320000
C      -47.65750000     -32.46440000     -70.53000000
C      -47.38170000     -33.31420000     -69.48600000
C      -46.27490000     -33.13250000     -68.69330000
C      -45.45400000     -32.03870000     -68.87680000
C      -45.71880000     -31.13290000     -69.92170000
H      -46.83660000     -30.65050000     -71.53600000
H      -48.02260000     -34.14370000     -69.29200000
H      -44.63430000     -31.85600000     -68.23820000
H      -45.07380000     -30.24850000     -70.09920000
C      -45.78320000     -34.15230000     -67.71420000
H      -46.61030000     -34.79560000     -67.61900000
H      -45.61070000     -33.71010000     -66.69790000
C      -48.88460000     -32.66450000     -71.42270000
H      -49.28550000     -33.68880000     -71.22890000
H      -49.49210000     -31.75780000     -71.33670000
S      -44.34480000     -35.26080000     -68.32220000
S      -48.55340000     -32.55240000     -73.31330000
C      -45.18050000     -36.02110000     -69.78810000
H      -45.53930000     -37.08090000     -69.64160000
H      -46.03340000     -35.42970000     -70.14770000
C      -47.77030000     -34.17780000     -73.72710000
H      -47.49270000     -34.17730000     -74.86940000
H      -48.40330000     -34.96960000     -73.58280000
C      -46.51440000     -34.59020000     -72.96970000
H      -46.80100000     -34.84100000     -71.93700000
H      -46.18200000     -35.56970000     -73.33400000
C      -44.25840000     -36.08140000     -71.03060000
H      -44.92630000     -36.38900000     -71.88630000
H      -43.39270000     -36.73620000     -70.86860000
C      -43.61260000     -34.75770000     -71.43570000
C      -42.27480000     -34.52070000     -71.03760000
C      -44.11640000     -33.67170000     -72.21140000
H      -41.54570000     -35.17660000     -70.57220000
C      -43.21800000     -32.70720000     -72.48050000
C      -45.34310000     -33.63780000     -73.02410000
C      -45.34680000     -32.50380000     -73.79770000
S      -41.71440000     -32.97250000     -71.70780000
S      -43.81840000     -31.58280000     -73.71710000
H      -46.16610000     -32.09750000     -74.33880000
