40
Properties=species:S:1:pos:R:3 #=T CELL(abcABC):=T 1.889726e+02=T 90.00000=T Traj:=T positionsangstrom=T Step:=T 0=T Bead:=T pbc="F F F"
C      -46.84060000     -31.35190000     -70.73240000
C      -47.53440000     -32.57120000     -70.50960000
C      -47.15870000     -33.36710000     -69.45290000
C      -46.08770000     -33.07190000     -68.68590000
C      -45.33580000     -31.87330000     -68.94980000
C      -45.72190000     -31.04360000     -69.96750000
H      -47.01790000     -30.68900000     -71.56310000
H      -47.65800000     -34.35250000     -69.31610000
H      -44.41490000     -31.70530000     -68.38900000
H      -45.12930000     -30.20000000     -70.32990000
C      -45.62310000     -34.04830000     -67.65580000
H      -46.37370000     -34.71620000     -67.11700000
H      -45.07780000     -33.51940000     -66.87510000
C      -48.75050000     -32.92860000     -71.39720000
H      -49.07790000     -33.94480000     -71.12590000
H      -49.61640000     -32.39050000     -71.04530000
S      -44.35780000     -35.12740000     -68.41020000
S      -48.68340000     -32.73960000     -73.11670000
C      -45.22380000     -35.88320000     -69.95720000
H      -45.60110000     -36.84960000     -69.60900000
H      -46.00310000     -35.24640000     -70.29090000
C      -47.81740000     -34.27680000     -73.70570000
H      -47.55900000     -34.13270000     -74.71550000
H      -48.57490000     -35.13110000     -73.67320000
C      -46.55520000     -34.57830000     -72.93080000
H      -46.69940000     -34.60370000     -71.85770000
H      -46.38420000     -35.66210000     -73.18860000
C      -44.18160000     -36.07180000     -71.00940000
H      -44.64320000     -36.66030000     -71.78740000
H      -43.41860000     -36.71050000     -70.57220000
C      -43.60790000     -34.82460000     -71.47880000
C      -42.36250000     -34.36220000     -71.01640000
C      -44.09590000     -33.86190000     -72.38210000
H      -41.71260000     -34.83580000     -70.28900000
C      -43.27530000     -32.74650000     -72.54760000
C      -45.35440000     -33.65890000     -73.12370000
C      -45.41330000     -32.47070000     -73.74400000
S      -41.77390000     -32.89330000     -71.73520000
S      -43.89190000     -31.57440000     -73.71420000
H      -46.30390000     -32.16960000     -74.26550000
