40
Properties=species:S:1:pos:R:3 #=T CELL(abcABC):=T 1.889726e+02=T 90.00000=T Traj:=T positionsangstrom=T Step:=T 0=T Bead:=T pbc="F F F"
C      -46.94220000     -31.44250000     -70.83470000
C      -47.62990000     -32.57840000     -70.47470000
C      -47.19190000     -33.31920000     -69.34620000
C      -45.98340000     -32.99090000     -68.67510000
C      -45.34930000     -31.74780000     -69.03590000
C      -45.82640000     -31.02130000     -70.10690000
H      -47.32810000     -30.90410000     -71.69470000
H      -47.77680000     -34.16420000     -68.98730000
H      -44.38820000     -31.40010000     -68.57760000
H      -45.42140000     -30.10760000     -70.40790000
C      -45.45570000     -33.94560000     -67.68280000
H      -46.25270000     -34.49340000     -67.20930000
H      -44.88050000     -33.37130000     -67.01530000
C      -48.84670000     -33.03320000     -71.14330000
H      -49.13570000     -34.07810000     -70.83250000
H      -49.68830000     -32.32530000     -70.80780000
S      -44.20710000     -35.18050000     -68.32530000
S      -48.78580000     -32.86200000     -73.02170000
C      -45.06150000     -35.90210000     -69.80650000
H      -45.58650000     -36.82140000     -69.60110000
H      -45.86550000     -35.11860000     -70.04630000
C      -47.86480000     -34.28630000     -73.74130000
H      -47.67930000     -34.18830000     -74.79670000
H      -48.57020000     -35.10000000     -73.67490000
C      -46.52630000     -34.73440000     -73.17730000
H      -46.64560000     -35.07060000     -72.08950000
H      -46.18090000     -35.54660000     -73.75220000
C      -44.20760000     -36.05680000     -71.07130000
H      -44.80770000     -36.44680000     -71.88710000
H      -43.39660000     -36.85120000     -70.97790000
C      -43.58140000     -34.81230000     -71.56000000
C      -42.30990000     -34.44640000     -71.13590000
C      -44.11030000     -33.81560000     -72.44930000
H      -41.70350000     -34.94100000     -70.40980000
C      -43.25030000     -32.68190000     -72.58660000
C      -45.37120000     -33.59850000     -73.15970000
C      -45.44980000     -32.45290000     -73.85540000
S      -41.75580000     -32.83300000     -71.70490000
S      -43.94410000     -31.51810000     -73.65660000
H      -46.19440000     -32.20440000     -74.65470000
