40
Properties=species:S:1:pos:R:3 #=T CELL(abcABC):=T 1.889726e+02=T 90.00000=T Traj:=T positionsangstrom=T Step:=T 0=T Bead:=T pbc="F F F"
C      -46.69780000     -31.43380000     -70.99240000
C      -47.43310000     -32.53770000     -70.58040000
C      -46.92070000     -33.40600000     -69.62630000
C      -45.75010000     -33.08180000     -68.94050000
C      -44.96910000     -31.96470000     -69.39880000
C      -45.44130000     -31.18080000     -70.44450000
H      -46.99410000     -30.68380000     -71.74480000
H      -47.54860000     -34.15500000     -69.19720000
H      -44.00920000     -31.79830000     -68.88400000
H      -44.84570000     -30.39020000     -70.87220000
C      -45.24250000     -33.85710000     -67.74830000
H      -46.07540000     -34.21240000     -67.16330000
H      -44.67470000     -33.21530000     -67.20260000
C      -48.84820000     -32.77610000     -71.13380000
H      -49.14920000     -33.71310000     -70.73190000
H      -49.46200000     -31.97170000     -70.82230000
S      -43.96310000     -35.00190000     -68.31360000
S      -48.92090000     -32.89990000     -73.09040000
C      -44.79790000     -36.06250000     -69.62260000
H      -44.93540000     -37.02460000     -69.15900000
H      -45.83830000     -35.67240000     -69.81680000
C      -48.00770000     -34.46160000     -73.38170000
H      -47.99170000     -34.41530000     -74.46070000
H      -48.59390000     -35.35500000     -73.17110000
C      -46.61700000     -34.77540000     -72.79200000
H      -46.83240000     -34.93740000     -71.71590000
H      -46.38240000     -35.75430000     -73.18210000
C      -44.03630000     -36.09500000     -71.00180000
H      -44.72170000     -36.59080000     -71.71400000
H      -43.16750000     -36.74430000     -70.83580000
C      -43.61270000     -34.75320000     -71.46830000
C      -42.38180000     -34.23370000     -71.12350000
C      -44.26000000     -33.81490000     -72.27370000
H      -41.76350000     -34.66810000     -70.33940000
C      -43.54130000     -32.65960000     -72.50390000
C      -45.50440000     -33.77940000     -73.01620000
C      -45.66130000     -32.68080000     -73.76920000
S      -41.98910000     -32.62290000     -71.73820000
S      -44.34790000     -31.59530000     -73.63840000
H      -46.43140000     -32.33350000     -74.41460000
