40
Properties=species:S:1:pos:R:3 #=T CELL(abcABC):=T 1.889726e+02=T 90.00000=T Traj:=T positionsangstrom=T Step:=T 0=T Bead:=T pbc="F F F"
C      -46.65320000     -31.49740000     -71.16300000
C      -47.44970000     -32.49340000     -70.56360000
C      -46.93230000     -33.18340000     -69.46500000
C      -45.66380000     -33.01030000     -68.95590000
C      -44.88910000     -31.90120000     -69.46660000
C      -45.39680000     -31.19330000     -70.61340000
H      -46.86680000     -30.79380000     -71.98610000
H      -47.42440000     -34.08440000     -69.06950000
H      -43.88700000     -31.67040000     -69.13220000
H      -44.90180000     -30.35290000     -71.03750000
C      -45.15050000     -33.82480000     -67.80170000
H      -46.05820000     -34.32030000     -67.25710000
H      -44.78010000     -33.12340000     -67.00110000
C      -48.82940000     -32.91930000     -71.16400000
H      -49.17710000     -33.85400000     -70.74200000
H      -49.63810000     -32.15490000     -70.96090000
S      -43.89870000     -35.11980000     -68.19650000
S      -48.92970000     -33.03370000     -72.94640000
C      -44.75070000     -35.97620000     -69.53040000
H      -45.05970000     -36.99110000     -69.24410000
H      -45.69070000     -35.41150000     -69.81370000
C      -48.01200000     -34.57890000     -73.38630000
H      -47.95630000     -34.49050000     -74.46710000
H      -48.73740000     -35.41330000     -73.09850000
C      -46.66400000     -34.89680000     -72.76570000
H      -46.80450000     -34.98410000     -71.63880000
H      -46.33430000     -35.88680000     -73.04530000
C      -43.86700000     -36.00260000     -70.74660000
H      -44.25780000     -36.59060000     -71.53160000
H      -42.90260000     -36.42940000     -70.60950000
C      -43.56160000     -34.65820000     -71.39250000
C      -42.36440000     -34.01720000     -71.03770000
C      -44.28420000     -33.79430000     -72.30870000
H      -41.78250000     -34.48830000     -70.17500000
C      -43.59240000     -32.62330000     -72.65370000
C      -45.59910000     -33.86050000     -73.01450000
C      -45.84570000     -32.74240000     -73.77860000
S      -42.08120000     -32.42280000     -71.79600000
S      -44.40970000     -31.68970000     -73.84810000
H      -46.61600000     -32.48630000     -74.53380000
