40
Properties=species:S:1:pos:R:3 #=T CELL(abcABC):=T 1.889726e+02=T 90.00000=T Traj:=T positionsangstrom=T Step:=T 0=T Bead:=T pbc="F F F"
C      -46.84600000     -31.53520000     -70.94590000
C      -47.54510000     -32.67280000     -70.51840000
C      -47.00270000     -33.35640000     -69.37150000
C      -45.80160000     -32.88320000     -68.77320000
C      -45.10150000     -31.71820000     -69.27170000
C      -45.65950000     -31.00110000     -70.35060000
H      -47.36520000     -31.06670000     -71.80440000
H      -47.54250000     -34.20930000     -68.95560000
H      -44.15240000     -31.37740000     -68.79420000
H      -45.01510000     -30.13190000     -70.70880000
C      -45.16300000     -33.62470000     -67.60620000
H      -45.92130000     -34.02450000     -66.88470000
H      -44.48550000     -32.86360000     -67.08430000
C      -48.84760000     -33.06680000     -71.07420000
H      -49.19530000     -34.03230000     -70.72210000
H      -49.52520000     -32.28260000     -70.92950000
S      -43.94080000     -34.96370000     -68.11140000
S      -48.82000000     -33.31020000     -72.89720000
C      -44.75800000     -35.73010000     -69.56430000
H      -45.25480000     -36.71800000     -69.34840000
H      -45.63570000     -35.11990000     -69.72500000
C      -47.97070000     -34.95090000     -73.18990000
H      -48.18070000     -35.16270000     -74.26740000
H      -48.52620000     -35.69950000     -72.61400000
C      -46.55400000     -34.99670000     -72.70030000
H      -46.54920000     -35.05710000     -71.59450000
H      -46.18480000     -36.00090000     -73.04320000
C      -43.79450000     -35.76030000     -70.75950000
H      -44.28550000     -36.42550000     -71.43580000
H      -42.87840000     -36.18690000     -70.41940000
C      -43.52320000     -34.44300000     -71.35920000
C      -42.30310000     -33.72260000     -71.04160000
C      -44.27900000     -33.74070000     -72.35280000
H      -41.50610000     -33.98580000     -70.32330000
C      -43.58390000     -32.62520000     -72.79090000
C      -45.54370000     -33.89850000     -73.09850000
C      -45.69070000     -32.96280000     -74.11290000
S      -42.05330000     -32.30920000     -72.02170000
S      -44.33590000     -31.87320000     -74.16300000
H      -46.55800000     -32.90010000     -74.80010000
