40
Properties=species:S:1:pos:R:3 #=T CELL(abcABC):=T 1.889726e+02=T 90.00000=T Traj:=T positionsangstrom=T Step:=T 0=T Bead:=T pbc="F F F"
C      -43.98050000     -35.51090000     -69.06660000
C      -44.71510000     -34.62370000     -68.25070000
C      -46.07070000     -34.48600000     -68.35710000
C      -46.79070000     -35.25210000     -69.30550000
C      -46.07250000     -36.23610000     -69.99470000
C      -44.68240000     -36.37980000     -69.89540000
H      -42.88290000     -35.57300000     -69.00070000
H      -46.44940000     -33.72660000     -67.73170000
H      -46.72020000     -36.73080000     -70.66620000
H      -44.16660000     -37.09610000     -70.52320000
C      -48.32460000     -35.19150000     -69.39120000
H      -48.68470000     -34.52490000     -68.61510000
H      -48.73860000     -36.22100000     -69.30520000
C      -43.87550000     -33.74130000     -67.43260000
H      -44.48530000     -33.31700000     -66.57210000
H      -42.92730000     -34.22690000     -66.96400000
S      -48.79420000     -34.24620000     -70.88640000
S      -43.54190000     -32.17110000     -68.41110000
C      -47.95100000     -32.60340000     -70.61970000
H      -48.49790000     -31.97770000     -71.31270000
H      -48.18850000     -32.31710000     -69.53640000
C      -43.01170000     -32.67150000     -70.17680000
H      -43.57360000     -33.57240000     -70.42370000
H      -42.05360000     -33.18980000     -70.22790000
C      -43.18090000     -31.56970000     -71.14340000
H      -44.04700000     -30.98140000     -70.73710000
H      -42.26690000     -31.00090000     -71.02330000
C      -46.44320000     -32.55810000     -70.90860000
H      -45.93340000     -33.34570000     -70.35040000
H      -45.88530000     -31.63960000     -70.61530000
C      -46.07080000     -32.60530000     -72.45280000
C      -46.98960000     -32.92430000     -73.39660000
C      -44.78060000     -32.33580000     -73.06830000
H      -47.97740000     -33.22070000     -73.14290000
C      -44.75530000     -32.57910000     -74.44640000
C      -43.49520000     -32.03680000     -72.53470000
C      -42.53580000     -31.99500000     -73.51930000
S      -46.35600000     -32.95760000     -75.02770000
S      -43.22810000     -32.38270000     -75.13230000
H      -41.52770000     -31.68810000     -73.32000000
