40
Properties=species:S:1:pos:R:3 #=T CELL(abcABC):=T 1.889726e+02=T 90.00000=T Traj:=T positionsangstrom=T Step:=T 0=T Bead:=T pbc="F F F"
C      -47.12270000     -31.49590000     -70.93760000
C      -47.64520000     -32.66630000     -70.42200000
C      -47.15580000     -33.30030000     -69.28040000
C      -46.03620000     -32.80720000     -68.65470000
C      -45.45230000     -31.61350000     -69.15450000
C      -45.97610000     -30.99330000     -70.30240000
H      -47.51880000     -31.04890000     -71.84690000
H      -47.64110000     -34.29450000     -68.98270000
H      -44.59520000     -31.28050000     -68.54710000
H      -45.63970000     -30.06690000     -70.70810000
C      -45.38410000     -33.63200000     -67.54650000
H      -46.08440000     -34.44140000     -67.20970000
H      -45.19300000     -32.92710000     -66.65250000
C      -48.86630000     -33.15740000     -71.09930000
H      -49.20100000     -34.12960000     -70.65810000
H      -49.63740000     -32.39160000     -71.01600000
S      -43.76990000     -34.37360000     -68.09880000
S      -48.68870000     -33.43820000     -72.91470000
C      -44.46490000     -35.59910000     -69.37880000
H      -44.56470000     -36.63390000     -68.97640000
H      -45.44200000     -35.25260000     -69.64040000
C      -47.81420000     -35.05790000     -73.19300000
H      -47.62060000     -35.17190000     -74.28330000
H      -48.45770000     -35.92070000     -72.91120000
C      -46.47170000     -35.18330000     -72.48670000
H      -46.59400000     -35.16410000     -71.41180000
H      -46.14470000     -36.20340000     -72.70720000
C      -43.60350000     -35.78270000     -70.67110000
H      -44.05200000     -36.53320000     -71.34510000
H      -42.63900000     -36.12250000     -70.33430000
C      -43.33040000     -34.47720000     -71.41360000
C      -42.17410000     -33.73260000     -71.21710000
C      -44.18790000     -33.77140000     -72.33130000
H      -41.37530000     -34.22280000     -70.67480000
C      -43.57790000     -32.68140000     -72.92780000
C      -45.46260000     -34.06500000     -72.98650000
C      -45.69230000     -33.27670000     -74.06480000
S      -42.04360000     -32.34570000     -72.26570000
S      -44.47620000     -32.01470000     -74.23960000
H      -46.45540000     -33.27500000     -74.88930000
