40
Properties=species:S:1:pos:R:3 #=T CELL(abcABC):=T 1.889726e+02=T 90.00000=T Traj:=T positionsangstrom=T Step:=T 0=T Bead:=T pbc="F F F"
C      -47.23800000     -31.29140000     -70.88800000
C      -47.75710000     -32.50430000     -70.42840000
C      -47.17260000     -33.20180000     -69.35140000
C      -46.03170000     -32.74250000     -68.74750000
C      -45.38050000     -31.66050000     -69.35010000
C      -46.02080000     -30.85900000     -70.35240000
H      -47.66950000     -30.69140000     -71.71450000
H      -47.69410000     -34.05270000     -68.95650000
H      -44.42880000     -31.29580000     -68.93680000
H      -45.65140000     -29.94690000     -70.80810000
C      -45.37470000     -33.56910000     -67.64330000
H      -45.95990000     -34.30640000     -67.24100000
H      -45.05250000     -32.83490000     -66.75490000
C      -48.94280000     -33.19630000     -71.06180000
H      -49.17450000     -34.14440000     -70.70150000
H      -49.82910000     -32.57090000     -70.90650000
S      -43.78990000     -34.38830000     -68.25440000
S      -48.82090000     -33.52640000     -72.88360000
C      -44.44600000     -35.68560000     -69.36490000
H      -44.39300000     -36.66740000     -68.89220000
H      -45.49430000     -35.34480000     -69.68020000
C      -47.83730000     -35.14470000     -72.96660000
H      -47.76740000     -35.39000000     -74.00600000
H      -48.42070000     -35.88070000     -72.45380000
C      -46.45220000     -35.17290000     -72.33050000
H      -46.47400000     -35.13550000     -71.17020000
H      -46.05660000     -36.17520000     -72.52550000
C      -43.51800000     -35.75500000     -70.59880000
H      -43.90130000     -36.63570000     -71.24180000
H      -42.57890000     -36.18490000     -70.29500000
C      -43.30980000     -34.45520000     -71.32510000
C      -42.14170000     -33.71370000     -71.15560000
C      -44.12050000     -33.86210000     -72.33560000
H      -41.32480000     -34.14140000     -70.47610000
C      -43.45620000     -32.81910000     -73.00210000
C      -45.46000000     -34.07440000     -72.89270000
C      -45.71940000     -33.25420000     -73.92870000
S      -41.94080000     -32.35330000     -72.29030000
S      -44.45350000     -32.04140000     -74.26520000
H      -46.59050000     -33.27200000     -74.58080000
