40
Properties=species:S:1:pos:R:3 #=T CELL(abcABC):=T 1.889726e+02=T 90.00000=T Traj:=T positionsangstrom=T Step:=T 0=T Bead:=T pbc="F F F"
C      -41.91750000     -31.70150000     -70.38350000
C      -42.85810000     -32.30010000     -71.21290000
C      -43.67310000     -33.31560000     -70.67450000
C      -43.57040000     -33.66270000     -69.31720000
C      -42.76990000     -32.95900000     -68.46210000
C      -41.84620000     -32.01220000     -69.06660000
H      -41.16990000     -30.98630000     -70.75940000
H      -44.47710000     -33.87290000     -71.22990000
H      -42.76620000     -33.26780000     -67.37040000
H      -41.13960000     -31.54510000     -68.46750000
C      -44.34230000     -34.88230000     -68.78540000
H      -43.66990000     -35.56210000     -68.20830000
H      -44.70950000     -35.53300000     -69.59230000
C      -42.94560000     -31.83770000     -72.64850000
H      -42.01300000     -31.55630000     -73.13680000
H      -43.39390000     -32.53620000     -73.37000000
S      -45.88460000     -34.56640000     -67.84270000
S      -43.99130000     -30.30060000     -72.63310000
C      -46.58570000     -33.09980000     -68.80830000
H      -47.12780000     -32.36320000     -68.17490000
H      -45.73430000     -32.67480000     -69.36100000
C      -45.53980000     -30.66810000     -71.66940000
H      -45.77330000     -29.68180000     -71.24580000
H      -45.16250000     -31.31410000     -70.81150000
C      -46.76250000     -31.15320000     -72.45430000
H      -47.60400000     -31.18690000     -71.81890000
H      -46.98180000     -30.42130000     -73.26080000
C      -47.62690000     -33.36950000     -69.87970000
H      -47.92400000     -32.34510000     -70.16180000
H      -48.52740000     -33.76730000     -69.35540000
C      -47.29150000     -34.29740000     -70.98890000
C      -47.35800000     -35.69820000     -70.84950000
C      -46.86390000     -33.89360000     -72.33450000
H      -47.93530000     -36.17640000     -69.98060000
C      -46.70450000     -35.02100000     -73.14530000
C      -46.61790000     -32.64150000     -73.00410000
C      -46.14620000     -32.89500000     -74.26290000
S      -46.93500000     -36.56350000     -72.34040000
S      -46.06930000     -34.57990000     -74.79540000
H      -45.83750000     -32.14440000     -74.97350000
