40
Properties=species:S:1:pos:R:3 #=T CELL(abcABC):=T 1.889726e+02=T 90.00000=T Traj:=T positionsangstrom=T Step:=T 0=T Bead:=T pbc="F F F"
C      -44.18190000     -35.76700000     -69.12830000
C      -44.73250000     -34.73190000     -68.40080000
C      -46.10510000     -34.56730000     -68.33120000
C      -47.00040000     -35.32140000     -69.05170000
C      -46.46340000     -36.31600000     -69.88680000
C      -45.06620000     -36.55400000     -69.91370000
H      -43.08480000     -35.95990000     -69.06390000
H      -46.56350000     -33.73800000     -67.80170000
H      -47.07170000     -36.98380000     -70.55930000
H      -44.53470000     -37.29930000     -70.50080000
C      -48.45600000     -34.91750000     -69.27650000
H      -48.92410000     -34.25130000     -68.53410000
H      -49.00000000     -35.83410000     -69.15680000
C      -43.75390000     -33.71410000     -67.69710000
H      -43.85920000     -33.52180000     -66.68390000
H      -42.90070000     -34.33950000     -67.83830000
S      -48.60290000     -34.27070000     -70.97390000
S      -43.51000000     -32.02340000     -68.48150000
C      -47.98970000     -32.50590000     -70.75530000
H      -48.59350000     -31.87330000     -71.46140000
H      -48.17110000     -32.15360000     -69.76540000
C      -42.85270000     -32.60890000     -70.08510000
H      -43.50260000     -33.44280000     -70.23090000
H      -41.75790000     -32.67420000     -70.07480000
C      -43.07770000     -31.54720000     -71.14030000
H      -43.83830000     -30.75200000     -70.82010000
H      -42.21400000     -30.93920000     -71.24660000
C      -46.44610000     -32.38070000     -70.95460000
H      -46.09450000     -33.15630000     -70.27220000
H      -46.21630000     -31.39100000     -70.58060000
C      -46.10650000     -32.52830000     -72.40820000
C      -46.95790000     -32.85480000     -73.41920000
C      -44.76820000     -32.39670000     -72.94480000
H      -48.01540000     -33.00760000     -73.36830000
C      -44.73110000     -32.68490000     -74.30240000
C      -43.47530000     -31.91640000     -72.52050000
C      -42.55420000     -31.93220000     -73.51960000
S      -46.27620000     -33.05850000     -75.01440000
S      -43.13290000     -32.46970000     -75.02940000
H      -41.50070000     -31.64020000     -73.45660000
