40
Properties=species:S:1:pos:R:3 #=T CELL(abcABC):=T 1.889726e+02=T 90.00000=T Traj:=T positionsangstrom=T Step:=T 0=T Bead:=T pbc="F F F"
C      -42.02440000     -32.05120000     -70.10920000
C      -42.88980000     -32.56500000     -71.08280000
C      -43.79030000     -33.58990000     -70.71980000
C      -43.85550000     -34.13380000     -69.42720000
C      -42.95380000     -33.64730000     -68.39090000
C      -42.02360000     -32.61770000     -68.82060000
H      -41.39920000     -31.15160000     -70.31140000
H      -44.43400000     -33.85890000     -71.52760000
H      -43.03130000     -33.96510000     -67.31980000
H      -41.32900000     -32.21300000     -68.03660000
C      -44.75220000     -35.29350000     -69.08900000
H      -44.28180000     -35.92730000     -68.37860000
H      -44.94770000     -35.85550000     -69.98940000
C      -43.02720000     -31.89250000     -72.44960000
H      -42.02540000     -31.54130000     -72.81980000
H      -43.50810000     -32.62220000     -73.10640000
S      -46.39540000     -34.91610000     -68.21070000
S      -43.96650000     -30.27700000     -72.32850000
C      -46.81170000     -33.23280000     -68.85200000
H      -47.33230000     -32.64030000     -68.05800000
H      -45.87200000     -32.68470000     -69.14240000
C      -45.55510000     -30.63590000     -71.42460000
H      -45.86680000     -29.88190000     -70.67540000
H      -45.35100000     -31.61640000     -70.90130000
C      -46.67860000     -30.98540000     -72.45390000
H      -47.68410000     -30.92180000     -71.95340000
H      -46.76420000     -30.22180000     -73.26300000
C      -47.88140000     -33.32480000     -69.96460000
H      -48.16220000     -32.26940000     -70.22550000
H      -48.83100000     -33.67330000     -69.46970000
C      -47.39730000     -34.07810000     -71.16550000
C      -47.55540000     -35.46280000     -71.17090000
C      -46.78590000     -33.64440000     -72.33300000
H      -48.33800000     -35.89890000     -70.65890000
C      -46.18850000     -34.60800000     -73.15000000
C      -46.41030000     -32.34460000     -73.01040000
C      -45.77150000     -32.50690000     -74.16490000
S      -46.79910000     -36.17990000     -72.60950000
S      -45.28430000     -34.13300000     -74.54400000
H      -45.51700000     -31.66450000     -74.87290000
