40
Properties=species:S:1:pos:R:3 #=T CELL(abcABC):=T 1.889726e+02=T 90.00000=T Traj:=T positionsangstrom=T Step:=T 0=T Bead:=T pbc="F F F"
C      -46.94360000     -31.65750000     -70.66140000
C      -47.33700000     -32.95970000     -70.48190000
C      -46.65250000     -33.75450000     -69.56410000
C      -45.65150000     -33.15640000     -68.79120000
C      -45.20880000     -31.87680000     -69.01520000
C      -45.80310000     -31.10870000     -70.01650000
H      -47.47840000     -31.06600000     -71.43740000
H      -47.07210000     -34.79160000     -69.33360000
H      -44.42520000     -31.47170000     -68.45990000
H      -45.45940000     -30.08220000     -70.18170000
C      -44.92370000     -33.85020000     -67.62100000
H      -45.65420000     -34.43750000     -67.06770000
H      -44.33100000     -33.00940000     -67.04680000
C      -48.60710000     -33.58740000     -71.11430000
H      -48.95390000     -34.51850000     -70.65780000
H      -49.48000000     -32.79820000     -70.90640000
S      -43.51830000     -34.93360000     -68.26460000
S      -48.74160000     -33.63660000     -72.90450000
C      -44.24560000     -35.98110000     -69.63280000
H      -44.09700000     -37.04610000     -69.34370000
H      -45.31370000     -35.88110000     -69.64890000
C      -47.76450000     -35.21070000     -73.30090000
H      -48.03100000     -35.38630000     -74.33770000
H      -48.24390000     -36.08240000     -72.77890000
C      -46.29310000     -35.21520000     -72.92490000
H      -46.28650000     -35.26200000     -71.78400000
H      -45.68910000     -35.99410000     -73.38520000
C      -43.71230000     -35.59050000     -71.01030000
H      -44.34240000     -36.09240000     -71.75410000
H      -42.70740000     -36.10540000     -71.21420000
C      -43.50270000     -34.17350000     -71.48330000
C      -42.43610000     -33.39820000     -71.14820000
C      -44.34250000     -33.53530000     -72.49340000
H      -41.69530000     -33.74850000     -70.49280000
C      -43.94680000     -32.22470000     -72.72120000
C      -45.54320000     -33.93860000     -73.28150000
C      -45.87010000     -32.98750000     -74.17630000
S      -42.51490000     -31.75120000     -71.81400000
S      -44.90600000     -31.45690000     -73.96070000
H      -46.71640000     -32.95820000     -74.92740000
