40
Properties=species:S:1:pos:R:3 #=T CELL(abcABC):=T 1.889726e+02=T 90.00000=T Traj:=T positionsangstrom=T Step:=T 0=T Bead:=T pbc="F F F"
C      -47.24330000     -32.13830000     -70.62800000
C      -47.70660000     -33.39790000     -70.21720000
C      -47.02890000     -34.11400000     -69.21910000
C      -45.84110000     -33.59690000     -68.68990000
C      -45.43850000     -32.29980000     -69.08780000
C      -46.02820000     -31.68170000     -70.15370000
H      -47.70050000     -31.62410000     -71.49390000
H      -47.46070000     -35.07820000     -68.85850000
H      -44.52320000     -31.95460000     -68.67580000
H      -45.70940000     -30.65700000     -70.38620000
C      -45.11670000     -34.37410000     -67.64950000
H      -45.78290000     -35.22570000     -67.51530000
H      -44.83200000     -33.66600000     -66.81320000
C      -48.81970000     -34.02720000     -70.93270000
H      -48.89590000     -35.11040000     -70.78430000
H      -49.83500000     -33.69420000     -70.66170000
S      -43.52740000     -35.10410000     -68.40950000
S      -48.77180000     -33.63540000     -72.77030000
C      -44.10540000     -35.80820000     -70.01690000
H      -44.04000000     -36.88940000     -69.97530000
H      -45.05300000     -35.40180000     -70.30300000
C      -47.63960000     -35.08150000     -73.41120000
H      -47.75090000     -35.04150000     -74.45450000
H      -48.13340000     -35.99700000     -73.06090000
C      -46.15860000     -34.94500000     -73.00340000
H      -46.11100000     -35.18470000     -71.88990000
H      -45.63290000     -35.75650000     -73.49550000
C      -43.12110000     -35.35110000     -71.16820000
H      -43.22380000     -35.99130000     -72.04850000
H      -42.09170000     -35.47400000     -70.70970000
C      -43.28250000     -33.91450000     -71.56280000
C      -42.32900000     -33.02310000     -71.10910000
C      -44.23170000     -33.31540000     -72.50210000
H      -41.46900000     -33.30840000     -70.40820000
C      -43.80610000     -31.99100000     -72.78650000
C      -45.43070000     -33.60760000     -73.20160000
C      -45.89040000     -32.56260000     -74.00590000
S      -42.46640000     -31.37590000     -71.78530000
S      -44.78750000     -31.21540000     -73.96650000
H      -46.62130000     -32.72140000     -74.72320000
