40
Properties=species:S:1:pos:R:3 #=T CELL(abcABC):=T 1.889726e+02=T 90.00000=T Traj:=T positionsangstrom=T Step:=T 0=T Bead:=T pbc="F F F"
C      -42.04430000     -32.41160000     -69.36050000
C      -42.84360000     -32.71170000     -70.47820000
C      -43.66620000     -33.82170000     -70.48340000
C      -43.74580000     -34.62850000     -69.28640000
C      -43.00940000     -34.32540000     -68.12050000
C      -42.06970000     -33.25770000     -68.18430000
H      -41.28250000     -31.66210000     -69.40090000
H      -44.28710000     -34.13470000     -71.38470000
H      -43.11170000     -34.92320000     -67.20240000
H      -41.46550000     -32.92250000     -67.32840000
C      -44.72290000     -35.82540000     -69.34380000
H      -44.44630000     -36.73700000     -68.76760000
H      -44.81600000     -36.01630000     -70.45110000
C      -42.78410000     -31.83750000     -71.72180000
H      -41.74110000     -31.61120000     -71.92440000
H      -43.18180000     -32.42760000     -72.62180000
S      -46.51340000     -35.45840000     -68.65640000
S      -43.55320000     -30.16820000     -71.49900000
C      -46.95490000     -33.69210000     -69.10540000
H      -47.43170000     -33.27140000     -68.22090000
H      -45.99580000     -33.18680000     -69.21530000
C      -45.13570000     -30.68280000     -70.65540000
H      -45.37010000     -29.80270000     -70.04920000
H      -44.92810000     -31.52750000     -70.05910000
C      -46.37800000     -30.95690000     -71.54420000
H      -47.20850000     -31.08870000     -70.83040000
H      -46.66680000     -30.06120000     -72.05110000
C      -47.90340000     -33.78470000     -70.31100000
H      -48.37650000     -32.79640000     -70.42010000
H      -48.73050000     -34.44080000     -70.08260000
C      -47.37750000     -34.31430000     -71.65120000
C      -47.51040000     -35.60110000     -72.05240000
C      -46.80480000     -33.45770000     -72.63420000
H      -47.87360000     -36.48900000     -71.50550000
C      -46.52990000     -34.08830000     -73.82610000
C      -46.43280000     -32.02420000     -72.62070000
C      -45.87450000     -31.68570000     -73.85310000
S      -46.87260000     -35.78820000     -73.66260000
S      -45.79250000     -32.99350000     -74.98850000
H      -45.37300000     -30.72850000     -74.10190000
