40
Properties=species:S:1:pos:R:3 #=T CELL(abcABC):=T 1.889726e+02=T 90.00000=T Traj:=T positionsangstrom=T Step:=T 0=T Bead:=T pbc="F F F"
C      -42.16580000     -32.62520000     -69.37640000
C      -43.02570000     -32.77470000     -70.43840000
C      -43.92150000     -33.85680000     -70.46750000
C      -43.91730000     -34.81980000     -69.38770000
C      -43.12080000     -34.59300000     -68.27890000
C      -42.26550000     -33.47970000     -68.25320000
H      -41.42240000     -31.75980000     -69.34040000
H      -44.54370000     -34.06030000     -71.29860000
H      -43.19460000     -35.34000000     -67.44490000
H      -41.62840000     -33.32690000     -67.39620000
C      -44.88240000     -36.03560000     -69.42320000
H      -44.47760000     -36.87580000     -68.88510000
H      -44.96850000     -36.33890000     -70.41960000
C      -42.90700000     -31.91170000     -71.64380000
H      -41.88640000     -31.59970000     -71.88940000
H      -43.29410000     -32.46290000     -72.44530000
S      -46.49360000     -35.68220000     -68.66600000
S      -43.74600000     -30.25170000     -71.48660000
C      -46.87840000     -33.84600000     -69.12570000
H      -47.40090000     -33.36100000     -68.23340000
H      -46.03220000     -33.20010000     -69.37130000
C      -45.26600000     -30.61150000     -70.56980000
H      -45.49300000     -29.75880000     -69.95200000
H      -45.19110000     -31.44780000     -69.77640000
C      -46.38970000     -30.84790000     -71.52310000
H      -47.15670000     -31.12320000     -70.84880000
H      -46.63860000     -29.86640000     -71.99680000
C      -47.82940000     -33.84350000     -70.30900000
H      -48.36560000     -32.86200000     -70.33490000
H      -48.47690000     -34.67550000     -70.05030000
C      -47.19140000     -34.20170000     -71.58910000
C      -47.43330000     -35.42430000     -72.11930000
C      -46.60290000     -33.27440000     -72.53810000
H      -47.76480000     -36.26830000     -71.62210000
C      -46.26600000     -33.89360000     -73.70590000
C      -46.16700000     -31.86430000     -72.52770000
C      -45.63630000     -31.51910000     -73.78160000
S      -46.82820000     -35.53580000     -73.76900000
S      -45.60040000     -32.78850000     -74.95810000
H      -45.43720000     -30.51730000     -74.05750000
