40
Properties=species:S:1:pos:R:3 #=T CELL(abcABC):=T 1.889726e+02=T 90.00000=T Traj:=T positionsangstrom=T Step:=T 0=T Bead:=T pbc="F F F"
C      -42.22870000     -32.65630000     -69.36640000
C      -42.98640000     -32.90350000     -70.53980000
C      -43.79570000     -34.09560000     -70.60940000
C      -44.01290000     -34.96190000     -69.53180000
C      -43.23070000     -34.70780000     -68.38800000
C      -42.45620000     -33.53290000     -68.32670000
H      -41.61910000     -31.72080000     -69.27450000
H      -44.35580000     -34.28260000     -71.46840000
H      -43.27380000     -35.39100000     -67.57440000
H      -41.87160000     -33.52210000     -67.36790000
C      -44.94760000     -36.11120000     -69.69870000
H      -44.56160000     -37.09750000     -69.29390000
H      -45.29310000     -36.35720000     -70.74600000
C      -43.00440000     -31.93580000     -71.67610000
H      -41.93530000     -31.64270000     -72.04070000
H      -43.63010000     -32.32770000     -72.50070000
S      -46.47160000     -35.87330000     -68.60500000
S      -43.65780000     -30.25930000     -71.18680000
C      -47.01750000     -34.13820000     -69.09730000
H      -47.52250000     -33.80990000     -68.19820000
H      -46.10720000     -33.56370000     -69.26430000
C      -45.37370000     -30.61240000     -70.47980000
H      -45.58170000     -29.79630000     -69.80580000
H      -45.36780000     -31.51470000     -69.92330000
C      -46.56140000     -30.66290000     -71.54850000
H      -47.46380000     -30.80630000     -70.97370000
H      -46.72810000     -29.67390000     -72.04810000
C      -47.94090000     -33.82000000     -70.27620000
H      -48.08430000     -32.75360000     -70.22370000
H      -48.99810000     -34.23620000     -70.32100000
C      -47.36150000     -34.06260000     -71.71230000
C      -47.47170000     -35.32930000     -72.25690000
C      -46.73850000     -33.12840000     -72.64110000
H      -47.80250000     -36.24400000     -71.83950000
C      -46.17490000     -33.77450000     -73.71440000
C      -46.40440000     -31.70280000     -72.61630000
C      -45.71210000     -31.31920000     -73.79680000
S      -46.60270000     -35.40470000     -73.79420000
S      -45.28930000     -32.70090000     -74.79010000
H      -45.24800000     -30.35410000     -74.00620000
