40
Properties=species:S:1:pos:R:3 #=T CELL(abcABC):=T 1.889726e+02=T 90.00000=T Traj:=T positionsangstrom=T Step:=T 0=T Bead:=T pbc="F F F"
C      -42.45120000     -32.74160000     -69.33750000
C      -43.06110000     -32.94550000     -70.57040000
C      -43.87930000     -34.09210000     -70.74650000
C      -44.03490000     -35.05570000     -69.77660000
C      -43.35130000     -34.83890000     -68.55860000
C      -42.55510000     -33.71040000     -68.36010000
H      -41.99850000     -31.80060000     -69.13690000
H      -44.41360000     -34.30870000     -71.70320000
H      -43.38430000     -35.57790000     -67.70600000
H      -42.11810000     -33.59570000     -67.39520000
C      -44.92740000     -36.20170000     -69.94920000
H      -44.60610000     -37.08650000     -69.36090000
H      -45.23290000     -36.42500000     -70.98140000
C      -43.05830000     -31.83670000     -71.61400000
H      -42.08290000     -31.56560000     -71.96780000
H      -43.58740000     -32.19080000     -72.51650000
S      -46.46810000     -35.81600000     -68.94460000
S      -43.80530000     -30.28770000     -70.91170000
C      -46.92900000     -34.10310000     -69.10120000
H      -47.38410000     -33.85230000     -68.11340000
H      -46.05040000     -33.42760000     -69.11280000
C      -45.49300000     -30.84610000     -70.28100000
H      -45.76600000     -30.13310000     -69.50240000
H      -45.49290000     -31.83870000     -69.75340000
C      -46.50180000     -30.68280000     -71.48960000
H      -47.55830000     -30.61580000     -71.11820000
H      -46.20790000     -29.73730000     -71.99060000
C      -47.93540000     -33.85830000     -70.29180000
H      -48.28440000     -32.76430000     -70.14890000
H      -48.78900000     -34.45990000     -70.21220000
C      -47.29550000     -34.07370000     -71.59160000
C      -47.23870000     -35.34420000     -72.18800000
C      -46.64090000     -33.07030000     -72.49810000
H      -47.58880000     -36.25480000     -71.74070000
C      -46.16110000     -33.65470000     -73.66420000
C      -46.37100000     -31.63800000     -72.54930000
C      -45.65650000     -31.24930000     -73.69140000
S      -46.38420000     -35.34630000     -73.71720000
S      -45.30890000     -32.58010000     -74.82990000
H      -45.19090000     -30.26580000     -73.75060000
