40
Properties=species:S:1:pos:R:3 #=T CELL(abcABC):=T 1.889726e+02=T 90.00000=T Traj:=T positionsangstrom=T Step:=T 0=T Bead:=T pbc="F F F"
C      -47.85280000     -32.25950000     -69.86940000
C      -47.88480000     -33.68090000     -69.93260000
C      -46.90820000     -34.43140000     -69.21860000
C      -45.77520000     -33.81120000     -68.60820000
C      -45.78450000     -32.44710000     -68.54150000
C      -46.87080000     -31.70720000     -69.10560000
H      -48.59390000     -31.57820000     -70.33880000
H      -46.97500000     -35.50870000     -69.25950000
H      -45.08460000     -31.85340000     -68.02160000
H      -46.72960000     -30.58270000     -69.02480000
C      -44.72430000     -34.69390000     -68.01130000
H      -45.15190000     -35.70040000     -67.96490000
H      -44.26180000     -34.41310000     -67.07540000
C      -49.00570000     -34.35730000     -70.75190000
H      -48.83580000     -35.45420000     -70.59020000
H      -49.99570000     -34.06240000     -70.29770000
S      -43.20470000     -34.76320000     -69.15520000
S      -49.18000000     -33.82540000     -72.43690000
C      -43.74480000     -35.94080000     -70.51960000
H      -43.47200000     -36.95860000     -70.19550000
H      -44.78540000     -35.78830000     -70.61760000
C      -47.75510000     -34.46970000     -73.33570000
H      -47.65270000     -33.96910000     -74.33390000
H      -47.96890000     -35.54020000     -73.53040000
C      -46.34960000     -34.46060000     -72.55450000
H      -46.45510000     -34.88290000     -71.61210000
H      -45.81840000     -35.27740000     -73.00160000
C      -43.09950000     -35.61100000     -71.84570000
H      -43.45670000     -36.12720000     -72.71830000
H      -42.03480000     -35.90960000     -71.80970000
C      -43.06930000     -34.10610000     -72.23000000
C      -41.84370000     -33.50220000     -72.36690000
C      -44.12890000     -33.12840000     -72.47430000
H      -40.78180000     -33.90050000     -72.09740000
C      -43.64060000     -31.89950000     -72.89320000
C      -45.59320000     -33.19130000     -72.53920000
C      -46.10710000     -31.95650000     -72.93800000
S      -41.92070000     -31.83540000     -72.78660000
S      -44.89250000     -30.73130000     -73.17640000
H      -47.14990000     -31.78810000     -73.10700000
