40
Properties=species:S:1:pos:R:3 #=T CELL(abcABC):=T 1.889726e+02=T 90.00000=T Traj:=T positionsangstrom=T Step:=T 0=T Bead:=T pbc="F F F"
C      -42.02240000     -35.74920000     -70.39820000
C      -43.38740000     -36.07620000     -70.50450000
C      -44.00990000     -36.01580000     -71.76110000
C      -43.24370000     -35.79410000     -72.96090000
C      -41.86610000     -35.44250000     -72.75070000
C      -41.25600000     -35.42170000     -71.52600000
H      -41.59500000     -35.75870000     -69.43110000
H      -45.05680000     -36.23770000     -71.83490000
H      -41.25990000     -35.22990000     -73.53490000
H      -40.12740000     -35.28360000     -71.40600000
C      -43.89230000     -35.78690000     -74.27960000
H      -44.83120000     -36.32650000     -74.07250000
H      -43.25220000     -36.34600000     -75.04680000
C      -44.14430000     -36.33890000     -69.22610000
H      -45.11220000     -36.70530000     -69.44080000
H      -43.66450000     -37.15460000     -68.66980000
S      -44.21690000     -34.02940000     -74.84680000
S      -43.96900000     -35.03180000     -67.96620000
C      -44.80980000     -33.20190000     -73.38130000
H      -44.15080000     -33.50390000     -72.62030000
H      -44.65690000     -32.08840000     -73.52340000
C      -44.66310000     -33.53170000     -68.87840000
H      -44.03840000     -33.28000000     -69.77430000
H      -44.56480000     -32.70820000     -68.16450000
C      -46.08500000     -33.65190000     -69.44720000
H      -45.95190000     -34.22930000     -70.33620000
H      -46.68320000     -34.20670000     -68.77700000
C      -46.24090000     -33.62970000     -72.92040000
H      -46.18180000     -34.42170000     -72.25250000
H      -46.81970000     -33.90350000     -73.74700000
C      -47.07620000     -32.48310000     -72.35590000
C      -47.61710000     -31.63490000     -73.33510000
C      -47.06870000     -31.89060000     -71.03030000
H      -47.67450000     -31.84680000     -74.34330000
C      -47.68710000     -30.68840000     -71.02170000
C      -46.71460000     -32.34940000     -69.70340000
C      -47.01560000     -31.37170000     -68.77580000
S      -48.14020000     -30.08170000     -72.61100000
S      -47.83680000     -29.94430000     -69.40360000
H      -46.73390000     -31.46550000     -67.69880000
