40
Properties=species:S:1:pos:R:3 #=T CELL(abcABC):=T 1.889726e+02=T 90.00000=T Traj:=T positionsangstrom=T Step:=T 0=T Bead:=T pbc="F F F"
C      -48.56180000     -35.71320000     -69.84590000
C      -47.18360000     -35.81530000     -69.76120000
C      -46.52240000     -34.82000000     -69.01540000
C      -47.18860000     -33.79530000     -68.34320000
C      -48.60400000     -33.66620000     -68.53800000
C      -49.22490000     -34.58170000     -69.32230000
H      -49.19660000     -36.40620000     -70.39960000
H      -45.42300000     -34.91660000     -69.02600000
H      -49.14350000     -32.81330000     -68.03280000
H      -50.29140000     -34.35860000     -69.52390000
C      -46.47850000     -32.72780000     -67.55780000
H      -46.37360000     -32.81710000     -66.49660000
H      -47.15030000     -31.91280000     -67.56440000
C      -46.47140000     -37.02340000     -70.47420000
H      -46.65260000     -37.85550000     -69.78600000
H      -46.91390000     -37.16420000     -71.53940000
S      -44.83000000     -32.40290000     -68.17530000
S      -44.67060000     -36.91220000     -70.35430000
C      -45.33090000     -31.59220000     -69.81350000
H      -45.97750000     -32.29080000     -70.31720000
H      -45.94580000     -30.67750000     -69.53830000
C      -44.22280000     -35.91710000     -71.87410000
H      -45.10770000     -36.08780000     -72.51750000
H      -43.33650000     -36.30560000     -72.34960000
C      -44.11750000     -34.42200000     -71.63510000
H      -44.83610000     -33.97040000     -70.97060000
H      -43.24140000     -34.11100000     -71.08210000
C      -43.99880000     -31.23560000     -70.53730000
H      -43.25020000     -31.99410000     -70.34820000
H      -43.57550000     -30.32100000     -70.10860000
C      -44.31370000     -31.05470000     -72.04810000
C      -44.33470000     -29.87120000     -72.71930000
C      -44.39210000     -32.18520000     -72.98000000
H      -44.44730000     -28.91400000     -72.24610000
C      -44.41380000     -31.69180000     -74.32940000
C      -44.19550000     -33.59590000     -72.95860000
C      -43.89320000     -34.09260000     -74.20890000
S      -44.45860000     -29.96560000     -74.46750000
S      -44.01170000     -32.92180000     -75.51580000
H      -43.93780000     -35.14890000     -74.41470000
