40
Properties=species:S:1:pos:R:3 #=T CELL(abcABC):=T 1.889726e+02=T 90.00000=T Traj:=T positionsangstrom=T Step:=T 0=T Bead:=T pbc="F F F"
C      -47.00840000     -32.34970000     -69.99510000
C      -47.44040000     -33.67860000     -69.88480000
C      -46.65610000     -34.69570000     -69.29480000
C      -45.37440000     -34.36410000     -68.84870000
C      -44.87050000     -33.01180000     -69.02290000
C      -45.68530000     -32.01220000     -69.55960000
H      -47.53080000     -31.57010000     -70.44480000
H      -47.12290000     -35.68610000     -69.11020000
H      -43.90090000     -32.78380000     -68.69560000
H      -45.29340000     -31.01250000     -69.65550000
C      -44.44190000     -35.44740000     -68.24770000
H      -45.07530000     -36.33410000     -68.07030000
H      -43.94150000     -35.15390000     -67.28600000
C      -48.84030000     -33.96850000     -70.50700000
H      -49.05880000     -35.00940000     -70.45940000
H      -49.60840000     -33.44450000     -69.88870000
S      -43.02170000     -35.89720000     -69.27320000
S      -49.00470000     -33.31220000     -72.25880000
C      -43.88780000     -36.17080000     -70.82650000
H      -43.74380000     -37.20790000     -71.16310000
H      -44.94740000     -35.88640000     -70.58890000
C      -47.94560000     -34.48000000     -73.32060000
H      -48.03610000     -34.23940000     -74.43460000
H      -48.37680000     -35.56700000     -73.20730000
C      -46.44910000     -34.47010000     -73.03740000
H      -46.20460000     -34.86820000     -72.05940000
H      -45.94110000     -35.22010000     -73.74070000
C      -43.37490000     -35.19020000     -71.94720000
H      -43.76480000     -35.45930000     -72.92790000
H      -42.26070000     -35.36300000     -71.97010000
C      -43.41950000     -33.68050000     -71.78170000
C      -42.42150000     -32.86570000     -71.31630000
C      -44.49760000     -32.91900000     -72.45410000
H      -41.41980000     -33.21770000     -70.93680000
C      -44.07360000     -31.52930000     -72.58010000
C      -45.75590000     -33.15460000     -73.13600000
C      -46.14960000     -32.10310000     -73.90310000
S      -42.67360000     -31.13460000     -71.63510000
S      -45.24940000     -30.62770000     -73.55410000
H      -47.06520000     -31.91130000     -74.51780000
