40
Properties=species:S:1:pos:R:3 #=T CELL(abcABC):=T 1.889726e+02=T 90.00000=T Traj:=T positionsangstrom=T Step:=T 0=T Bead:=T pbc="F F F"
C      -46.93870000     -32.37190000     -70.08490000
C      -47.34080000     -33.66560000     -69.96790000
C      -46.54560000     -34.64500000     -69.31230000
C      -45.31690000     -34.22130000     -68.79540000
C      -44.90730000     -32.85540000     -68.87150000
C      -45.76580000     -31.91240000     -69.44170000
H      -47.66050000     -31.67400000     -70.52760000
H      -46.93780000     -35.63780000     -69.08250000
H      -43.93990000     -32.58000000     -68.36240000
H      -45.51150000     -30.83730000     -69.52930000
C      -44.44450000     -35.30690000     -68.19130000
H      -45.02800000     -36.17500000     -67.85170000
H      -43.90950000     -34.88910000     -67.33090000
C      -48.65150000     -34.03380000     -70.66640000
H      -48.89150000     -35.10360000     -70.58020000
H      -49.49210000     -33.47500000     -70.00600000
S      -43.17890000     -36.00250000     -69.39310000
S      -48.82050000     -33.38100000     -72.39680000
C      -43.99270000     -36.04930000     -71.04550000
H      -43.94520000     -37.16170000     -71.29650000
H      -45.04180000     -35.73420000     -70.96440000
C      -47.85110000     -34.56300000     -73.42730000
H      -48.15160000     -34.34180000     -74.41060000
H      -48.22440000     -35.52710000     -73.25450000
C      -46.36650000     -34.51030000     -73.19810000
H      -46.12920000     -35.03290000     -72.30790000
H      -45.90220000     -35.15830000     -74.00680000
C      -43.20200000     -35.21460000     -72.09210000
H      -43.33360000     -35.63490000     -73.10780000
H      -42.15600000     -35.46300000     -71.86070000
C      -43.34630000     -33.71220000     -72.12430000
C      -42.25310000     -32.97340000     -71.79220000
C      -44.47960000     -32.89110000     -72.41600000
H      -41.19750000     -33.23820000     -71.77370000
C      -44.28390000     -31.58270000     -72.24320000
C      -45.76650000     -33.13040000     -73.09780000
C      -46.45210000     -31.93800000     -73.39940000
S      -42.57990000     -31.22280000     -71.78960000
S      -45.52910000     -30.56910000     -72.92520000
H      -47.40300000     -31.91610000     -73.79050000
