40
Properties=species:S:1:pos:R:3 #=T CELL(abcABC):=T 1.889726e+02=T 90.00000=T Traj:=T positionsangstrom=T Step:=T 0=T Bead:=T pbc="F F F"
C      -42.86630000     -34.24320000     -68.43690000
C      -43.25150000     -33.50000000     -69.58140000
C      -43.77490000     -34.16650000     -70.70750000
C      -43.99000000     -35.58760000     -70.63950000
C      -43.40810000     -36.33180000     -69.61980000
C      -42.87700000     -35.65110000     -68.47510000
H      -42.75770000     -33.66730000     -67.52700000
H      -44.15200000     -33.71670000     -71.56300000
H      -43.31080000     -37.39600000     -69.67550000
H      -42.66870000     -36.20630000     -67.58470000
C      -44.68920000     -36.49990000     -71.69600000
H      -44.17340000     -37.43530000     -71.81900000
H      -44.72370000     -36.02270000     -72.71080000
C      -43.08230000     -32.05350000     -69.60750000
H      -42.21210000     -31.82500000     -69.04690000
H      -42.78970000     -31.63130000     -70.61770000
S      -46.40890000     -36.87550000     -71.19880000
S      -44.36590000     -31.16910000     -68.68730000
C      -47.03410000     -35.32040000     -70.38090000
H      -47.83780000     -35.68260000     -69.76150000
H      -46.25090000     -34.83090000     -69.77700000
C      -45.97240000     -31.91380000     -69.11460000
H      -46.49960000     -32.02240000     -68.15880000
H      -45.77410000     -32.98180000     -69.28700000
C      -46.66030000     -31.03270000     -70.13320000
H      -47.70370000     -31.24620000     -70.18420000
H      -46.52140000     -30.00920000     -69.98240000
C      -47.85200000     -34.32830000     -71.34500000
H      -48.35490000     -33.61180000     -70.64730000
H      -48.62330000     -34.92800000     -71.85400000
C      -47.12250000     -33.61550000     -72.47830000
C      -47.11570000     -34.28490000     -73.69230000
C      -46.43490000     -32.36240000     -72.50820000
H      -47.21610000     -35.36360000     -74.00790000
C      -45.91560000     -32.08900000     -73.74880000
C      -46.17840000     -31.20940000     -71.56440000
C      -45.33540000     -30.23500000     -72.12560000
S      -46.08770000     -33.39650000     -74.87140000
S      -45.07510000     -30.53030000     -73.80510000
H      -44.85350000     -29.40830000     -71.75930000
