40
Properties=species:S:1:pos:R:3 #=T CELL(abcABC):=T 1.889726e+02=T 90.00000=T Traj:=T positionsangstrom=T Step:=T 0=T Bead:=T pbc="F F F"
C      -47.21420000     -32.55010000     -69.83740000
C      -47.43880000     -33.89740000     -69.86870000
C      -46.41770000     -34.71980000     -69.36590000
C      -45.24350000     -34.18130000     -68.84610000
C      -45.03980000     -32.83750000     -68.77790000
C      -46.07220000     -31.97610000     -69.26360000
H      -48.04800000     -31.98280000     -70.18830000
H      -46.44450000     -35.82460000     -69.46930000
H      -44.10930000     -32.45600000     -68.38190000
H      -46.08930000     -30.91580000     -69.13050000
C      -44.13110000     -35.11460000     -68.42140000
H      -44.44040000     -36.14410000     -68.15330000
H      -43.53460000     -34.73810000     -67.54900000
C      -48.73530000     -34.47580000     -70.42620000
H      -48.60350000     -35.51340000     -70.55580000
H      -49.49910000     -34.34140000     -69.69620000
S      -42.77390000     -35.31790000     -69.76590000
S      -49.25560000     -33.56600000     -71.90600000
C      -43.72270000     -36.03320000     -71.15730000
H      -43.58080000     -37.12990000     -71.14300000
H      -44.80330000     -35.82510000     -70.93790000
C      -48.17630000     -34.26350000     -73.17810000
H      -48.33170000     -33.67770000     -74.10060000
H      -48.57010000     -35.25680000     -73.42090000
C      -46.63360000     -34.32140000     -72.99590000
H      -46.29070000     -35.07690000     -72.29480000
H      -46.24600000     -34.77690000     -73.87290000
C      -43.44510000     -35.40150000     -72.53960000
H      -44.24340000     -35.77740000     -73.22340000
H      -42.50950000     -35.75470000     -73.01670000
C      -43.43910000     -33.88700000     -72.40220000
C      -42.24090000     -33.25230000     -72.15430000
C      -44.50930000     -32.90190000     -72.48170000
H      -41.26400000     -33.72290000     -71.88010000
C      -44.08310000     -31.62430000     -72.35590000
C      -45.93220000     -33.01050000     -72.80300000
C      -46.42560000     -31.80280000     -73.15090000
S      -42.37150000     -31.51940000     -71.94330000
S      -45.29890000     -30.49140000     -72.92930000
H      -47.37850000     -31.57040000     -73.45040000
