40
Properties=species:S:1:pos:R:3 #=T CELL(abcABC):=T 1.889726e+02=T 90.00000=T Traj:=T positionsangstrom=T Step:=T 0=T Bead:=T pbc="F F F"
C      -47.22730000     -32.35310000     -69.67040000
C      -47.42540000     -33.72620000     -69.73890000
C      -46.44610000     -34.57890000     -69.27220000
C      -45.23340000     -34.09960000     -68.75100000
C      -45.04790000     -32.71060000     -68.64170000
C      -46.05330000     -31.84790000     -69.06050000
H      -48.04910000     -31.66160000     -69.90070000
H      -46.60440000     -35.61860000     -69.46190000
H      -44.12210000     -32.38220000     -68.25750000
H      -45.94370000     -30.78520000     -68.80450000
C      -44.09500000     -35.10970000     -68.47400000
H      -44.55010000     -36.06060000     -68.17250000
H      -43.46130000     -34.80810000     -67.60850000
C      -48.59730000     -34.44540000     -70.40270000
H      -48.36490000     -35.49500000     -70.63980000
H      -49.38310000     -34.47770000     -69.74950000
S      -42.84150000     -35.33070000     -69.84910000
S      -49.20680000     -33.70960000     -71.93420000
C      -43.95300000     -35.96690000     -71.24060000
H      -43.91540000     -37.08130000     -71.19390000
H      -45.00910000     -35.60520000     -71.10160000
C      -48.14140000     -34.35860000     -73.29930000
H      -48.32830000     -33.68840000     -74.14170000
H      -48.39410000     -35.41660000     -73.53980000
C      -46.64100000     -34.45570000     -72.92480000
H      -46.63780000     -35.02030000     -71.97220000
H      -46.00670000     -34.96440000     -73.69600000
C      -43.38090000     -35.42660000     -72.60090000
H      -44.00760000     -35.85070000     -73.38950000
H      -42.34130000     -35.74200000     -72.79540000
C      -43.31150000     -33.85020000     -72.74480000
C      -42.08880000     -33.19010000     -72.67510000
C      -44.44180000     -33.01760000     -72.62430000
H      -41.16380000     -33.69070000     -72.71140000
C      -44.07290000     -31.65190000     -72.45370000
C      -45.90230000     -33.16240000     -72.71580000
C      -46.50350000     -31.93670000     -72.55980000
S      -42.37230000     -31.45010000     -72.42100000
S      -45.40940000     -30.55280000     -72.42950000
H      -47.58550000     -31.73730000     -72.57420000
