40
Properties=species:S:1:pos:R:3 #=T CELL(abcABC):=T 1.889726e+02=T 90.00000=T Traj:=T positionsangstrom=T Step:=T 0=T Bead:=T pbc="F F F"
C      -42.73000000     -34.72180000     -68.79090000
C      -43.34050000     -33.84030000     -69.72660000
C      -43.88640000     -34.35190000     -70.99620000
C      -43.98780000     -35.74650000     -71.08610000
C      -43.44940000     -36.65080000     -70.10920000
C      -42.77620000     -36.10080000     -68.98260000
H      -42.18830000     -34.26580000     -67.92610000
H      -44.30000000     -33.67350000     -71.74280000
H      -43.71430000     -37.65880000     -70.28160000
H      -42.37790000     -36.82950000     -68.28520000
C      -44.80470000     -36.31500000     -72.23200000
H      -44.39380000     -37.18510000     -72.70630000
H      -44.88000000     -35.51410000     -72.98780000
C      -43.40070000     -32.30940000     -69.53530000
H      -42.39470000     -32.01310000     -69.27220000
H      -43.72960000     -31.81350000     -70.44650000
S      -46.53120000     -36.76890000     -71.90400000
S      -44.64140000     -31.81100000     -68.19670000
C      -47.20370000     -35.23840000     -70.93210000
H      -47.82880000     -35.64510000     -70.14670000
H      -46.40760000     -34.77560000     -70.39900000
C      -46.27920000     -32.33130000     -68.78800000
H      -46.79030000     -32.56910000     -67.92200000
H      -46.17400000     -33.33060000     -69.35450000
C      -47.01820000     -31.38260000     -69.82930000
H      -48.11910000     -31.63330000     -69.94250000
H      -47.18820000     -30.33070000     -69.41010000
C      -47.99340000     -34.21990000     -71.78000000
H      -48.69600000     -33.55050000     -71.19210000
H      -48.70790000     -34.77540000     -72.40490000
C      -47.04090000     -33.36710000     -72.61880000
C      -46.69250000     -33.80210000     -73.84880000
C      -46.30030000     -32.10270000     -72.26880000
H      -46.98340000     -34.77910000     -74.26690000
C      -45.59850000     -31.63140000     -73.38300000
C      -46.31990000     -31.18950000     -71.14560000
C      -45.46650000     -30.13710000     -71.36140000
S      -45.64340000     -32.76830000     -74.75060000
S      -44.73320000     -30.18860000     -73.02380000
H      -45.23420000     -29.39450000     -70.56160000
