40
Properties=species:S:1:pos:R:3 #=T CELL(abcABC):=T 1.889726e+02=T 90.00000=T Traj:=T positionsangstrom=T Step:=T 0=T Bead:=T pbc="F F F"
C      -44.38170000     -36.20380000     -68.94040000
C      -44.65360000     -34.85720000     -68.51490000
C      -45.90790000     -34.29260000     -68.63320000
C      -46.98490000     -35.04260000     -69.23630000
C      -46.72110000     -36.34120000     -69.63450000
C      -45.45870000     -36.95840000     -69.45180000
H      -43.47630000     -36.82840000     -68.72250000
H      -46.06200000     -33.28250000     -68.20380000
H      -47.48400000     -36.92270000     -70.20850000
H      -45.58060000     -37.99780000     -69.61450000
C      -48.33960000     -34.47080000     -69.39430000
H      -48.44670000     -33.62050000     -68.60420000
H      -49.01190000     -35.31460000     -69.25420000
C      -43.49350000     -34.21590000     -67.82380000
H      -43.81130000     -34.16840000     -66.78160000
H      -42.54310000     -34.85800000     -67.86470000
S      -48.65960000     -33.73110000     -71.00140000
S      -43.18330000     -32.48290000     -68.40230000
C      -48.16640000     -31.96300000     -70.98310000
H      -48.66110000     -31.43530000     -71.85880000
H      -48.41550000     -31.51440000     -70.01670000
C      -43.20750000     -32.75720000     -70.15200000
H      -44.06980000     -33.35580000     -70.49310000
H      -42.20170000     -33.25340000     -70.55080000
C      -43.29740000     -31.50800000     -70.99510000
H      -44.22250000     -30.93530000     -70.68740000
H      -42.38780000     -30.94250000     -70.93320000
C      -46.66670000     -31.93900000     -71.23870000
H      -45.98540000     -32.43950000     -70.59270000
H      -46.37530000     -30.89750000     -71.09430000
C      -46.20450000     -32.36120000     -72.57670000
C      -47.01230000     -32.78060000     -73.59410000
C      -44.80980000     -32.26320000     -72.99290000
H      -48.03330000     -33.11820000     -73.52250000
C      -44.66010000     -32.67550000     -74.33120000
C      -43.53800000     -31.92750000     -72.42150000
C      -42.49500000     -32.08680000     -73.27830000
S      -46.09750000     -33.34730000     -74.97430000
S      -43.02730000     -32.49670000     -74.92940000
H      -41.46300000     -31.73270000     -73.06650000
