40
Properties=species:S:1:pos:R:3 #=T CELL(abcABC):=T 1.889726e+02=T 90.00000=T Traj:=T positionsangstrom=T Step:=T 0=T Bead:=T pbc="F F F"
C      -45.63250000     -37.15340000     -71.52290000
C      -46.15170000     -36.44960000     -70.41950000
C      -47.22040000     -35.57650000     -70.70120000
C      -47.82090000     -35.48090000     -71.94720000
C      -47.32570000     -36.27720000     -72.95470000
C      -46.26820000     -37.16760000     -72.78070000
H      -44.81100000     -37.87470000     -71.40600000
H      -47.70790000     -34.96860000     -69.94260000
H      -47.84280000     -36.19450000     -73.86140000
H      -45.81340000     -37.78500000     -73.57010000
C      -49.06390000     -34.58450000     -72.12860000
H      -49.29810000     -34.09240000     -71.13610000
H      -50.00800000     -35.03090000     -72.52430000
C      -45.62740000     -36.54310000     -69.02640000
H      -46.29240000     -35.93340000     -68.45760000
H      -45.77750000     -37.58090000     -68.58370000
S      -48.76170000     -33.43130000     -73.45780000
S      -43.83010000     -36.19220000     -68.96050000
C      -47.42930000     -32.33050000     -72.74970000
H      -47.37530000     -31.61490000     -73.56570000
H      -47.82340000     -31.82810000     -71.81290000
C      -43.63480000     -34.60470000     -69.88320000
H      -43.73970000     -34.79050000     -70.97470000
H      -42.53270000     -34.50560000     -69.70990000
C      -44.48180000     -33.40980000     -69.40740000
H      -45.50000000     -33.52570000     -69.65300000
H      -44.40980000     -33.45140000     -68.31920000
C      -45.99950000     -32.95360000     -72.56990000
H      -45.69390000     -33.67590000     -73.45620000
H      -46.01320000     -33.63930000     -71.70660000
C      -45.00470000     -31.85040000     -72.32920000
C      -44.75200000     -31.01170000     -73.38460000
C      -44.20610000     -31.45620000     -71.14210000
H      -45.29160000     -30.99780000     -74.32760000
C      -43.43840000     -30.36210000     -71.37430000
C      -43.90310000     -32.11600000     -69.85040000
C      -43.09230000     -31.36690000     -69.05590000
S      -43.62340000     -29.72320000     -72.96320000
S      -42.52750000     -29.93270000     -69.94660000
H      -42.85990000     -31.43000000     -68.00200000
