40
Properties=species:S:1:pos:R:3 #=T CELL(abcABC):=T 1.889726e+02=T 90.00000=T Traj:=T positionsangstrom=T Step:=T 0=T Bead:=T pbc="F F F"
C      -46.63790000     -32.50880000     -69.37610000
C      -46.72730000     -33.91730000     -69.28650000
C      -45.60630000     -34.70330000     -69.12980000
C      -44.25390000     -34.02440000     -69.00880000
C      -44.20220000     -32.66570000     -69.04500000
C      -45.37770000     -31.92860000     -69.26880000
H      -47.54250000     -31.92270000     -69.40350000
H      -45.69360000     -35.73020000     -68.96940000
H      -43.20920000     -32.09110000     -69.06600000
H      -45.25580000     -30.85470000     -69.54880000
C      -43.04390000     -34.87720000     -68.79390000
H      -43.35340000     -35.89590000     -68.48980000
H      -42.51420000     -34.62990000     -67.84130000
C      -48.06890000     -34.63730000     -69.43430000
H      -47.98000000     -35.71560000     -69.69840000
H      -48.62350000     -34.63610000     -68.52870000
S      -42.03630000     -34.99840000     -70.36060000
S      -49.13190000     -34.00290000     -70.74310000
C      -43.33810000     -35.87800000     -71.48130000
H      -43.06010000     -36.91380000     -71.65710000
H      -44.24010000     -35.82460000     -70.88230000
C      -48.51840000     -34.85750000     -72.25080000
H      -49.17330000     -34.44660000     -73.04530000
H      -48.69690000     -35.97850000     -72.26960000
C      -47.01580000     -34.65900000     -72.62340000
H      -46.40030000     -35.16690000     -71.85900000
H      -46.85550000     -35.19640000     -73.54720000
C      -43.48460000     -35.20610000     -72.85430000
H      -44.25020000     -35.78150000     -73.33700000
H      -42.67060000     -35.32420000     -73.53660000
C      -43.82920000     -33.72820000     -72.87490000
C      -42.78610000     -32.83120000     -72.88470000
C      -45.11210000     -33.01250000     -72.88220000
H      -41.70730000     -33.04410000     -73.10620000
C      -44.87000000     -31.61460000     -72.81500000
C      -46.50120000     -33.24740000     -72.86850000
C      -47.32810000     -32.09430000     -72.84240000
S      -43.18410000     -31.17980000     -72.80250000
S      -46.30780000     -30.63890000     -72.84080000
H      -48.40920000     -32.03690000     -72.86900000
