40
Properties=species:S:1:pos:R:3 #=T CELL(abcABC):=T 1.889726e+02=T 90.00000=T Traj:=T positionsangstrom=T Step:=T 0=T Bead:=T pbc="F F F"
C      -46.62300000     -32.52180000     -69.34110000
C      -46.67800000     -33.86090000     -69.04550000
C      -45.48480000     -34.54610000     -68.78990000
C      -44.22560000     -33.96470000     -68.80740000
C      -44.19110000     -32.59280000     -69.22560000
C      -45.38320000     -31.86960000     -69.33400000
H      -47.53420000     -31.99980000     -69.65640000
H      -45.62940000     -35.52180000     -68.37180000
H      -43.25420000     -32.14960000     -69.45430000
H      -45.27910000     -30.84420000     -69.53540000
C      -42.86960000     -34.66230000     -68.78220000
H      -42.91370000     -35.63540000     -68.38070000
H      -42.17040000     -33.97200000     -68.18760000
C      -47.96490000     -34.63660000     -69.15700000
H      -47.88850000     -35.71770000     -69.12520000
H      -48.53860000     -34.31090000     -68.23750000
S      -42.03600000     -34.73700000     -70.49390000
S      -49.09870000     -34.17020000     -70.59570000
C      -43.33440000     -35.71110000     -71.49320000
H      -43.06210000     -36.77440000     -71.41000000
H      -44.19500000     -35.44180000     -70.88890000
C      -48.36430000     -35.06750000     -72.09630000
H      -49.00480000     -34.80640000     -72.90980000
H      -48.48650000     -36.20680000     -71.96170000
C      -46.89920000     -34.75620000     -72.28270000
H      -46.54820000     -34.94150000     -71.24260000
H      -46.45450000     -35.59420000     -72.84420000
C      -43.62980000     -35.20690000     -72.94880000
H      -44.49240000     -35.64550000     -73.36530000
H      -42.73060000     -35.38430000     -73.55930000
C      -43.81630000     -33.68580000     -72.96870000
C      -42.73350000     -32.87280000     -73.16680000
C      -45.06380000     -33.02490000     -72.83120000
H      -41.70540000     -33.17280000     -73.35230000
C      -44.94490000     -31.62700000     -73.00230000
C      -46.46730000     -33.38570000     -72.75070000
C      -47.39690000     -32.29900000     -72.81780000
S      -43.26580000     -31.11750000     -73.13250000
S      -46.53570000     -30.85960000     -72.92380000
H      -48.48920000     -32.20720000     -72.96120000
