40
Properties=species:S:1:pos:R:3 #=T CELL(abcABC):=T 1.889726e+02=T 90.00000=T Traj:=T positionsangstrom=T Step:=T 0=T Bead:=T pbc="F F F"
C      -41.50120000     -34.05870000     -69.70530000
C      -41.99660000     -33.07560000     -70.59450000
C      -43.01780000     -32.19300000     -70.16080000
C      -43.34870000     -32.16350000     -68.80930000
C      -42.84480000     -33.15900000     -67.95190000
C      -41.88920000     -34.08110000     -68.40560000
H      -41.02870000     -34.90780000     -70.11640000
H      -43.33790000     -31.36890000     -70.78770000
H      -43.16200000     -33.24300000     -66.93030000
H      -41.55200000     -34.94480000     -67.83240000
C      -44.30540000     -31.17160000     -68.16340000
H      -44.38070000     -30.23500000     -68.73730000
H      -43.93790000     -31.03180000     -67.13520000
C      -41.46090000     -33.19570000     -71.95100000
H      -40.38990000     -32.91980000     -71.92070000
H      -41.49600000     -34.22750000     -72.28170000
S      -46.01980000     -31.72770000     -67.81010000
S      -42.15790000     -32.15740000     -73.38160000
C      -46.86700000     -32.18910000     -69.34170000
H      -47.97380000     -32.11120000     -69.11700000
H      -46.67460000     -31.41210000     -70.10830000
C      -43.56060000     -33.22110000     -73.85260000
H      -43.23600000     -34.30470000     -73.66990000
H      -43.86960000     -33.05710000     -74.92870000
C      -44.73190000     -32.97430000     -72.86770000
H      -44.48730000     -33.37530000     -71.88690000
H      -44.75420000     -31.87320000     -72.74620000
C      -46.50210000     -33.59100000     -69.79900000
H      -46.50930000     -34.39810000     -69.09650000
H      -45.45550000     -33.48990000     -70.14010000
C      -47.37420000     -34.06550000     -70.98760000
C      -48.66050000     -34.43240000     -70.61330000
C      -47.15080000     -34.13720000     -72.39930000
H      -49.06180000     -34.56530000     -69.61070000
C      -48.20230000     -34.71850000     -73.12210000
C      -46.03400000     -33.71830000     -73.27050000
C      -46.26640000     -34.06320000     -74.62930000
S      -49.54450000     -35.10120000     -72.04610000
S      -47.76690000     -34.95880000     -74.83080000
H      -45.62920000     -33.97070000     -75.45580000
