40
Properties=species:S:1:pos:R:3 #=T CELL(abcABC):=T 1.889726e+02=T 90.00000=T Traj:=T positionsangstrom=T Step:=T 0=T Bead:=T pbc="F F F"
C      -44.63660000     -36.06830000     -69.07590000
C      -44.74120000     -34.82990000     -68.40950000
C      -45.98140000     -34.12530000     -68.39100000
C      -47.08890000     -34.79280000     -68.91750000
C      -46.98830000     -35.97570000     -69.69750000
C      -45.68010000     -36.55560000     -69.82000000
H      -43.72320000     -36.57550000     -68.96640000
H      -46.12810000     -33.15130000     -67.94040000
H      -47.86820000     -36.29570000     -70.21250000
H      -45.55210000     -37.47040000     -70.42290000
C      -48.40260000     -34.07080000     -69.01330000
H      -48.39030000     -33.04040000     -68.53970000
H      -49.23260000     -34.73960000     -68.58250000
C      -43.52340000     -34.27910000     -67.68340000
H      -43.69120000     -34.00510000     -66.61220000
H      -42.62320000     -34.89530000     -67.62240000
S      -48.95330000     -33.73300000     -70.77500000
S      -42.85780000     -32.72830000     -68.47320000
C      -48.26200000     -32.04070000     -71.20790000
H      -48.87910000     -31.77470000     -72.02630000
H      -48.46750000     -31.36560000     -70.30450000
C      -43.04710000     -33.09600000     -70.27020000
H      -43.91120000     -33.85550000     -70.40140000
H      -42.23430000     -33.65660000     -70.73780000
C      -43.31390000     -31.73350000     -70.96740000
H      -44.08830000     -31.29010000     -70.39560000
H      -42.45730000     -31.05860000     -70.74410000
C      -46.69970000     -32.11350000     -71.30640000
H      -46.28230000     -32.86480000     -70.61560000
H      -46.13030000     -31.19710000     -70.98560000
C      -46.17040000     -32.41350000     -72.68620000
C      -46.94110000     -32.87390000     -73.69820000
C      -44.74200000     -32.41240000     -73.03620000
H      -48.05660000     -32.91920000     -73.70930000
C      -44.51470000     -32.77800000     -74.35750000
C      -43.49630000     -31.97160000     -72.45650000
C      -42.40180000     -32.07990000     -73.28200000
S      -45.98920000     -33.22040000     -75.11720000
S      -42.90370000     -32.55750000     -74.91920000
H      -41.36530000     -31.86600000     -72.97920000
