40
Properties=species:S:1:pos:R:3 #=T CELL(abcABC):=T 1.889726e+02=T 90.00000=T Traj:=T positionsangstrom=T Step:=T 0=T Bead:=T pbc="F F F"
C      -42.02830000     -34.61400000     -69.46960000
C      -42.14230000     -33.46790000     -70.31450000
C      -42.77660000     -32.32140000     -69.91660000
C      -43.49410000     -32.33230000     -68.72010000
C      -43.33430000     -33.38270000     -67.86080000
C      -42.62710000     -34.51640000     -68.20470000
H      -41.34720000     -35.48610000     -69.66880000
H      -42.83720000     -31.36830000     -70.53540000
H      -43.68890000     -33.38530000     -66.81360000
H      -42.54850000     -35.30940000     -67.43160000
C      -44.17170000     -31.08510000     -68.24990000
H      -44.00910000     -30.25620000     -68.90180000
H      -43.85500000     -30.77230000     -67.25930000
C      -41.62860000     -33.61020000     -71.69750000
H      -40.54650000     -33.77760000     -71.71470000
H      -42.05930000     -34.52810000     -72.18420000
S      -45.96570000     -31.28390000     -68.15900000
S      -42.02640000     -32.14630000     -72.85060000
C      -46.48830000     -31.98920000     -69.76190000
H      -47.50250000     -31.64400000     -69.94860000
H      -46.01390000     -31.43870000     -70.60200000
C      -43.53850000     -32.77320000     -73.73100000
H      -43.40920000     -33.68390000     -74.37630000
H      -43.71540000     -31.92260000     -74.41460000
C      -44.66540000     -32.98700000     -72.78180000
H      -44.40660000     -33.69810000     -72.02370000
H      -44.89520000     -32.01690000     -72.21400000
C      -46.41070000     -33.49510000     -69.95560000
H      -46.62030000     -34.08810000     -69.01920000
H      -45.40880000     -33.86840000     -70.24290000
C      -47.36640000     -34.14810000     -71.06300000
C      -48.55600000     -34.76280000     -70.83880000
C      -47.02000000     -34.13690000     -72.47060000
H      -48.98430000     -34.77170000     -69.86980000
C      -48.00200000     -34.77840000     -73.20330000
C      -45.97460000     -33.55480000     -73.31810000
C      -46.27660000     -33.76430000     -74.64180000
S      -49.33790000     -35.31490000     -72.28470000
S      -47.84730000     -34.63460000     -74.92770000
H      -45.62730000     -33.40360000     -75.46900000
