40
Properties=species:S:1:pos:R:3 #=T CELL(abcABC):=T 1.889726e+02=T 90.00000=T Traj:=T positionsangstrom=T Step:=T 0=T Bead:=T pbc="F F F"
C      -42.30660000     -34.68990000     -69.47300000
C      -42.28630000     -33.50490000     -70.23740000
C      -42.95540000     -32.32440000     -69.82670000
C      -43.62590000     -32.34320000     -68.60320000
C      -43.49830000     -33.51940000     -67.77920000
C      -42.87980000     -34.67160000     -68.20150000
H      -41.98590000     -35.61590000     -69.98900000
H      -42.98280000     -31.32210000     -70.36620000
H      -44.01790000     -33.49150000     -66.83220000
H      -42.81540000     -35.52780000     -67.57910000
C      -44.31220000     -31.09080000     -68.11660000
H      -43.83010000     -30.18660000     -68.61740000
H      -44.21490000     -31.06370000     -67.03060000
C      -41.63090000     -33.59620000     -71.59860000
H      -40.49750000     -33.44540000     -71.45210000
H      -41.69160000     -34.54800000     -71.98780000
S      -46.07680000     -31.21030000     -68.28520000
S      -41.92560000     -32.38880000     -72.89490000
C      -46.59980000     -31.91100000     -69.90040000
H      -47.60370000     -31.63910000     -70.26990000
H      -45.82950000     -31.55810000     -70.57340000
C      -43.57090000     -32.70430000     -73.71120000
H      -43.47230000     -33.58400000     -74.36490000
H      -43.81450000     -31.83190000     -74.32090000
C      -44.55450000     -33.05440000     -72.65830000
H      -44.06050000     -33.89770000     -72.14210000
H      -44.68520000     -32.33760000     -71.85300000
C      -46.52950000     -33.50360000     -69.91290000
H      -46.95440000     -33.86680000     -68.98680000
H      -45.49150000     -33.72980000     -69.78700000
C      -47.26110000     -34.15540000     -71.09040000
C      -48.40360000     -34.80330000     -70.78510000
C      -47.01910000     -33.95540000     -72.51380000
H      -48.69830000     -35.06000000     -69.77730000
C      -47.96000000     -34.61000000     -73.29880000
C      -45.87220000     -33.52910000     -73.27320000
C      -46.08820000     -33.68440000     -74.59650000
S      -49.18360000     -35.40480000     -72.27250000
S      -47.65460000     -34.37780000     -75.04450000
H      -45.37920000     -33.46530000     -75.42810000
