40
Properties=species:S:1:pos:R:3 #=T CELL(abcABC):=T 1.889726e+02=T 90.00000=T Traj:=T positionsangstrom=T Step:=T 0=T Bead:=T pbc="F F F"
C      -46.89540000     -32.37450000     -69.50050000
C      -46.37680000     -33.61970000     -68.96220000
C      -45.02200000     -33.79820000     -68.75120000
C      -44.10120000     -32.77720000     -69.12220000
C      -44.53780000     -31.59230000     -69.71610000
C      -45.96940000     -31.37740000     -69.81640000
H      -47.91650000     -32.19820000     -69.64030000
H      -44.69870000     -34.72910000     -68.34660000
H      -43.78460000     -30.92740000     -70.03850000
H      -46.30330000     -30.52130000     -70.30910000
C      -42.67970000     -33.14260000     -68.93040000
H      -42.71430000     -34.03530000     -68.27420000
H      -42.10210000     -32.28710000     -68.42050000
C      -47.32820000     -34.73930000     -68.66730000
H      -46.80880000     -35.67860000     -68.42520000
H      -47.89380000     -34.50540000     -67.68580000
S      -41.80340000     -33.52960000     -70.54400000
S      -48.65450000     -35.09970000     -69.90500000
C      -42.75140000     -34.92370000     -71.10980000
H      -42.29890000     -35.87850000     -70.90690000
H      -43.73460000     -35.03990000     -70.52890000
C      -47.55520000     -36.10200000     -71.04090000
H      -48.19020000     -36.33380000     -71.87430000
H      -47.08730000     -36.99280000     -70.48090000
C      -46.26320000     -35.48650000     -71.58690000
H      -45.61110000     -35.39870000     -70.72420000
H      -45.75800000     -36.29750000     -72.19430000
C      -42.94000000     -34.81300000     -72.64550000
H      -43.45200000     -35.75880000     -72.90050000
H      -42.03600000     -34.76050000     -73.20800000
C      -43.78000000     -33.54830000     -72.93310000
C      -43.07720000     -32.48890000     -73.47210000
C      -45.19370000     -33.40910000     -72.87210000
H      -41.96670000     -32.25300000     -73.53810000
C      -45.54990000     -32.16850000     -73.36950000
C      -46.35640000     -34.19950000     -72.39930000
C      -47.55550000     -33.52800000     -72.65800000
S      -44.20590000     -31.18930000     -73.87030000
S      -47.30760000     -31.98250000     -73.48640000
H      -48.55510000     -33.81880000     -72.30810000
