40
Properties=species:S:1:pos:R:3 #=T CELL(abcABC):=T 1.889726e+02=T 90.00000=T Traj:=T positionsangstrom=T Step:=T 0=T Bead:=T pbc="F F F"
C      -46.96670000     -31.98210000     -69.16810000
C      -46.45670000     -33.30860000     -68.93620000
C      -45.08110000     -33.56520000     -69.03860000
C      -44.16000000     -32.53760000     -69.25410000
C      -44.62490000     -31.23250000     -69.51120000
C      -46.02100000     -31.02330000     -69.62440000
H      -48.08260000     -31.67860000     -69.18170000
H      -44.68490000     -34.60600000     -68.92880000
H      -44.00200000     -30.42790000     -69.76760000
H      -46.33810000     -29.98940000     -69.92870000
C      -42.69100000     -32.78200000     -68.98940000
H      -42.48210000     -33.44270000     -68.10100000
H      -42.29120000     -31.75720000     -68.74630000
C      -47.25050000     -34.54450000     -68.59030000
H      -46.55810000     -35.34880000     -68.25070000
H      -47.89270000     -34.41300000     -67.70880000
S      -41.59890000     -33.46990000     -70.41110000
S      -48.39350000     -35.05020000     -69.96070000
C      -42.42790000     -34.94100000     -71.06000000
H      -41.64930000     -35.70060000     -70.88200000
H      -43.18630000     -35.21540000     -70.37650000
C      -47.48470000     -36.26810000     -70.94260000
H      -48.19510000     -36.85970000     -71.55650000
H      -47.16740000     -37.00060000     -70.26030000
C      -46.31200000     -35.78500000     -71.90370000
H      -45.37500000     -35.80570000     -71.22460000
H      -46.11020000     -36.57320000     -72.67000000
C      -42.85950000     -34.81430000     -72.49280000
H      -43.15900000     -35.77100000     -72.89600000
H      -41.88690000     -34.55050000     -72.99440000
C      -43.81560000     -33.69600000     -72.88090000
C      -43.23330000     -32.60300000     -73.40250000
C      -45.27590000     -33.60700000     -72.87600000
H      -42.22180000     -32.49330000     -73.55940000
C      -45.68610000     -32.40830000     -73.48820000
C      -46.41470000     -34.41850000     -72.46430000
C      -47.62010000     -33.84900000     -72.83480000
S      -44.38490000     -31.42810000     -73.97570000
S      -47.45760000     -32.17450000     -73.49640000
H      -48.63060000     -34.15630000     -72.68530000
