40
Properties=species:S:1:pos:R:3 #=T CELL(abcABC):=T 1.889726e+02=T 90.00000=T Traj:=T positionsangstrom=T Step:=T 0=T Bead:=T pbc="F F F"
C      -44.74290000     -36.05230000     -69.19380000
C      -44.79280000     -34.98730000     -68.33260000
C      -46.01070000     -34.33510000     -68.06380000
C      -47.08160000     -34.63280000     -68.95710000
C      -46.96520000     -35.60420000     -70.01370000
C      -45.84840000     -36.42600000     -69.97210000
H      -43.79990000     -36.67790000     -69.18350000
H      -46.05990000     -33.61280000     -67.24140000
H      -47.87620000     -35.92030000     -70.55310000
H      -45.72520000     -37.30730000     -70.59560000
C      -48.34930000     -33.82010000     -68.88630000
H      -48.19870000     -32.93730000     -68.15840000
H      -49.23350000     -34.38580000     -68.46900000
C      -43.56480000     -34.52640000     -67.62810000
H      -43.88930000     -34.24270000     -66.59590000
H      -42.82200000     -35.35390000     -67.59090000
S      -49.05430000     -33.31540000     -70.52940000
S      -42.99510000     -32.94980000     -68.29660000
C      -47.95040000     -31.96240000     -71.08220000
H      -48.32820000     -31.56300000     -72.05360000
H      -48.04540000     -31.18460000     -70.36220000
C      -42.96280000     -33.29650000     -70.12420000
H      -43.66860000     -34.06660000     -70.26900000
H      -41.94140000     -33.73120000     -70.34500000
C      -43.26630000     -32.00860000     -70.98980000
H      -44.08200000     -31.41330000     -70.41280000
H      -42.40600000     -31.33040000     -70.84250000
C      -46.47420000     -32.22620000     -71.35990000
H      -45.90750000     -33.12050000     -70.88310000
H      -45.85320000     -31.31010000     -71.08630000
C      -46.06950000     -32.42770000     -72.77180000
C      -46.97240000     -32.68910000     -73.79770000
C      -44.69250000     -32.38320000     -73.22580000
H      -47.93610000     -33.03540000     -73.75500000
C      -44.58720000     -32.69160000     -74.57960000
C      -43.44700000     -32.26220000     -72.43850000
C      -42.32350000     -32.38010000     -73.30060000
S      -46.09050000     -32.98910000     -75.33870000
S      -42.82640000     -32.74770000     -74.96660000
H      -41.27710000     -32.39840000     -73.02920000
