40
Properties=species:S:1:pos:R:3 #=T CELL(abcABC):=T 1.889726e+02=T 90.00000=T Traj:=T positionsangstrom=T Step:=T 0=T Bead:=T pbc="F F F"
C      -44.32420000     -36.71390000     -69.76410000
C      -44.10220000     -35.49770000     -70.34980000
C      -44.95150000     -35.04840000     -71.38870000
C      -46.08200000     -35.74510000     -71.87150000
C      -46.26430000     -37.01390000     -71.29900000
C      -45.41020000     -37.48570000     -70.26280000
H      -43.72360000     -37.09440000     -68.88200000
H      -44.66610000     -34.16160000     -71.85090000
H      -47.18280000     -37.51110000     -71.56070000
H      -45.60670000     -38.47640000     -69.85600000
C      -46.89330000     -35.18300000     -72.98510000
H      -46.99960000     -36.03100000     -73.69080000
H      -46.43440000     -34.25310000     -73.30230000
C      -43.02500000     -34.55380000     -69.92440000
H      -42.09740000     -35.05080000     -69.78800000
H      -42.93440000     -33.71970000     -70.62000000
S      -48.59790000     -34.53840000     -72.51290000
S      -43.37180000     -33.83580000     -68.24170000
C      -48.25240000     -33.62100000     -70.98660000
H      -49.18800000     -33.46970000     -70.41680000
H      -47.57940000     -34.08270000     -70.27600000
C      -45.01810000     -33.11260000     -68.46930000
H      -45.50390000     -33.11630000     -67.47570000
H      -45.59670000     -33.80350000     -69.04230000
C      -45.04870000     -31.66090000     -69.04670000
H      -46.16230000     -31.49960000     -68.97010000
H      -44.49670000     -30.95500000     -68.39450000
C      -47.84310000     -32.08020000     -71.19360000
H      -47.65020000     -31.59320000     -70.26700000
H      -48.63660000     -31.49920000     -71.54410000
C      -46.66330000     -31.79250000     -72.13530000
C      -46.75860000     -31.77390000     -73.48030000
C      -45.26470000     -31.64870000     -71.75560000
H      -47.67880000     -31.92910000     -73.84060000
C      -44.40680000     -31.34980000     -72.82560000
C      -44.53820000     -31.46570000     -70.46710000
C      -43.19130000     -31.25050000     -70.59380000
S      -45.28630000     -31.38610000     -74.30400000
S      -42.75010000     -31.20240000     -72.28700000
H      -42.38290000     -31.17530000     -69.81280000
