40
Properties=species:S:1:pos:R:3 #=T CELL(abcABC):=T 1.889726e+02=T 90.00000=T Traj:=T positionsangstrom=T Step:=T 0=T Bead:=T pbc="F F F"
C      -44.47690000     -36.84400000     -69.78380000
C      -44.11080000     -35.58340000     -70.34660000
C      -44.87550000     -35.06580000     -71.36680000
C      -46.01550000     -35.71820000     -71.81720000
C      -46.46860000     -36.85290000     -71.12330000
C      -45.70000000     -37.42370000     -70.09950000
H      -43.75070000     -37.23640000     -69.07240000
H      -44.59530000     -34.06280000     -71.75900000
H      -47.42450000     -37.29900000     -71.34690000
H      -46.02120000     -38.38310000     -69.71110000
C      -46.98930000     -35.24570000     -72.94340000
H      -47.33590000     -36.07990000     -73.65220000
H      -46.58350000     -34.49430000     -73.59440000
C      -42.93330000     -34.71270000     -69.82980000
H      -42.18400000     -35.30290000     -69.38900000
H      -42.43560000     -34.00380000     -70.61360000
S      -48.58170000     -34.60440000     -72.25850000
S      -43.36570000     -33.74880000     -68.35690000
C      -48.10460000     -33.50260000     -70.93910000
H      -48.98980000     -33.65060000     -70.26980000
H      -47.22040000     -33.92730000     -70.44310000
C      -45.04670000     -33.17210000     -68.64660000
H      -45.50160000     -33.13960000     -67.69740000
H      -45.62380000     -33.75450000     -69.40170000
C      -45.16880000     -31.66420000     -69.15740000
H      -46.20650000     -31.38610000     -69.23350000
H      -44.66640000     -31.00650000     -68.47330000
C      -47.83050000     -31.97740000     -71.37560000
H      -47.85540000     -31.45580000     -70.40340000
H      -48.73840000     -31.67040000     -71.98200000
C      -46.58580000     -31.84540000     -72.18480000
C      -46.69410000     -31.87460000     -73.52400000
C      -45.25480000     -31.57810000     -71.77150000
H      -47.63830000     -31.94080000     -73.98570000
C      -44.37920000     -31.39020000     -72.78370000
C      -44.54310000     -31.50910000     -70.51820000
C      -43.21340000     -31.27760000     -70.62700000
S      -45.18080000     -31.52130000     -74.37590000
S      -42.72100000     -30.98500000     -72.29910000
H      -42.53650000     -31.05320000     -69.85900000
