40
Properties=species:S:1:pos:R:3 #=T CELL(abcABC):=T 1.889726e+02=T 90.00000=T Traj:=T positionsangstrom=T Step:=T 0=T Bead:=T pbc="F F F"
C      -44.61310000     -36.65240000     -69.55690000
C      -44.16950000     -35.52850000     -70.29110000
C      -44.92530000     -35.17360000     -71.39190000
C      -46.02980000     -35.89190000     -71.83810000
C      -46.50550000     -37.02840000     -71.06600000
C      -45.77850000     -37.36450000     -69.96230000
H      -44.10440000     -36.94440000     -68.63870000
H      -44.56830000     -34.21100000     -71.91190000
H      -47.38760000     -37.60730000     -71.27780000
H      -46.12710000     -38.16190000     -69.29100000
C      -46.89860000     -35.27140000     -72.84240000
H      -47.22810000     -35.97660000     -73.64850000
H      -46.27810000     -34.52650000     -73.30670000
C      -42.94680000     -34.79300000     -69.89390000
H      -42.11990000     -35.51100000     -69.72520000
H      -42.63980000     -34.33650000     -70.82840000
S      -48.56540000     -34.59740000     -72.16980000
S      -43.28650000     -33.70600000     -68.39600000
C      -48.10200000     -33.40390000     -70.88460000
H      -48.85230000     -33.34530000     -70.11550000
H      -47.19900000     -33.83200000     -70.39970000
C      -45.05760000     -33.15610000     -68.67460000
H      -45.54440000     -33.40230000     -67.72120000
H      -45.61780000     -33.84930000     -69.36890000
C      -45.14670000     -31.64600000     -69.12670000
H      -46.22760000     -31.36030000     -68.97750000
H      -44.64000000     -31.04420000     -68.38510000
C      -47.86830000     -31.95400000     -71.42210000
H      -47.62700000     -31.28600000     -70.61720000
H      -48.68000000     -31.60460000     -72.04010000
C      -46.61030000     -31.75660000     -72.31940000
C      -46.65160000     -31.70660000     -73.68310000
C      -45.27910000     -31.52610000     -71.78870000
H      -47.53180000     -31.97920000     -74.27400000
C      -44.38090000     -31.45640000     -72.83680000
C      -44.60970000     -31.40540000     -70.49730000
C      -43.30290000     -31.04720000     -70.70590000
S      -45.02330000     -31.65210000     -74.39590000
S      -42.80170000     -31.07960000     -72.36540000
H      -42.63390000     -30.94510000     -69.86000000
