40
Properties=species:S:1:pos:R:3 #=T CELL(abcABC):=T 1.889726e+02=T 90.00000=T Traj:=T positionsangstrom=T Step:=T 0=T Bead:=T pbc="F F F"
C      -44.70590000     -36.46120000     -69.44680000
C      -44.36360000     -35.37870000     -70.24760000
C      -45.17280000     -35.12990000     -71.32070000
C      -46.35110000     -35.89700000     -71.55390000
C      -46.74140000     -36.98130000     -70.74050000
C      -45.88190000     -37.25690000     -69.70260000
H      -44.02600000     -36.73960000     -68.66890000
H      -45.04550000     -34.26490000     -71.97100000
H      -47.62000000     -37.53810000     -70.96890000
H      -45.89100000     -38.25670000     -69.21660000
C      -47.34320000     -35.57940000     -72.66270000
H      -47.78030000     -36.38920000     -73.28230000
H      -46.84940000     -34.93490000     -73.43470000
C      -43.14500000     -34.50020000     -70.01420000
H      -42.15130000     -35.02280000     -70.06650000
H      -43.06500000     -33.74220000     -70.75190000
S      -48.87410000     -34.46080000     -72.09870000
S      -43.20050000     -33.65170000     -68.33970000
C      -48.15910000     -33.16740000     -70.92450000
H      -49.05760000     -32.87020000     -70.42020000
H      -47.53090000     -33.75720000     -70.19790000
C      -44.87980000     -32.88200000     -68.48780000
H      -45.28920000     -32.93050000     -67.45080000
H      -45.50040000     -33.57560000     -69.07410000
C      -44.99830000     -31.50210000     -69.16280000
H      -46.09810000     -31.45190000     -69.19830000
H      -44.48970000     -30.75000000     -68.60980000
C      -47.76670000     -31.87180000     -71.56280000
H      -47.60580000     -31.05540000     -70.83000000
H      -48.56590000     -31.38530000     -72.09130000
C      -46.44100000     -31.84690000     -72.39160000
C      -46.52600000     -31.94870000     -73.75060000
C      -45.13530000     -31.59620000     -71.90060000
H      -47.44210000     -31.98900000     -74.24600000
C      -44.18350000     -31.57430000     -72.96550000
C      -44.38650000     -31.41690000     -70.65780000
C      -42.99760000     -31.26050000     -70.86960000
S      -44.90860000     -31.85130000     -74.47280000
S      -42.53810000     -31.33440000     -72.56630000
H      -42.34450000     -30.98480000     -70.12120000
