40
Properties=species:S:1:pos:R:3 #=T CELL(abcABC):=T 1.889726e+02=T 90.00000=T Traj:=T positionsangstrom=T Step:=T 0=T Bead:=T pbc="F F F"
C      -48.29020000     -31.51820000     -71.12780000
C      -48.72510000     -32.82220000     -70.81980000
C      -48.26740000     -33.52090000     -69.69340000
C      -47.33750000     -32.85370000     -68.83520000
C      -46.94430000     -31.55640000     -69.14970000
C      -47.44250000     -30.86950000     -70.28030000
H      -48.66100000     -31.08750000     -72.01620000
H      -48.50890000     -34.60410000     -69.55650000
H      -46.13650000     -31.13720000     -68.58660000
H      -47.08950000     -29.76840000     -70.51850000
C      -46.77780000     -33.59610000     -67.65780000
H      -46.94110000     -34.71680000     -67.80820000
H      -47.27180000     -33.39700000     -66.70390000
C      -49.63610000     -33.49110000     -71.81880000
H      -50.52340000     -33.93980000     -71.42080000
H      -49.97280000     -32.73340000     -72.51270000
S      -45.04840000     -33.25610000     -67.37510000
S      -48.87680000     -34.96230000     -72.63570000
C      -44.16110000     -33.66350000     -68.95510000
H      -43.19210000     -33.98230000     -68.73070000
H      -44.51310000     -34.59150000     -69.33500000
C      -47.06250000     -34.52050000     -73.41990000
H      -47.30450000     -33.97880000     -74.34110000
H      -46.64090000     -35.51310000     -73.53490000
C      -46.06480000     -33.69110000     -72.49640000
H      -46.40010000     -32.66870000     -72.34430000
H      -45.95340000     -34.14630000     -71.47230000
C      -43.93590000     -32.48380000     -69.98120000
H      -43.55480000     -31.64840000     -69.35920000
H      -44.95190000     -32.30220000     -70.40170000
C      -43.02020000     -32.87880000     -71.06720000
C      -41.64440000     -32.83690000     -70.91190000
C      -43.48000000     -33.37050000     -72.35610000
H      -41.11220000     -32.38950000     -70.04120000
C      -42.31250000     -33.52280000     -73.16710000
C      -44.65790000     -33.80340000     -73.01780000
C      -44.42220000     -34.30380000     -74.29870000
S      -40.77230000     -33.21330000     -72.41810000
S      -42.71400000     -34.28800000     -74.69570000
H      -45.12070000     -34.83080000     -74.90170000
