40
Properties=species:S:1:pos:R:3 #=T CELL(abcABC):=T 1.889726e+02=T 90.00000=T Traj:=T positionsangstrom=T Step:=T 0=T Bead:=T pbc="F F F"
C      -48.12090000     -31.12060000     -70.85650000
C      -48.49710000     -32.48720000     -70.79560000
C      -47.96640000     -33.24160000     -69.75700000
C      -47.16350000     -32.68960000     -68.74290000
C      -46.73080000     -31.32530000     -68.84740000
C      -47.26390000     -30.58190000     -69.89440000
H      -48.50720000     -30.43300000     -71.66920000
H      -48.20690000     -34.26520000     -69.73580000
H      -46.10050000     -30.87710000     -68.08390000
H      -46.91290000     -29.59600000     -70.07700000
C      -46.62310000     -33.52860000     -67.54390000
H      -46.93050000     -34.54490000     -67.63780000
H      -47.14140000     -33.12410000     -66.59910000
C      -49.53480000     -33.15590000     -71.75660000
H      -50.27110000     -33.44820000     -71.05940000
H      -49.91150000     -32.48100000     -72.45420000
S      -44.84800000     -33.29950000     -67.21650000
S      -48.91520000     -34.71090000     -72.58030000
C      -44.05160000     -33.82750000     -68.83350000
H      -43.01420000     -33.98580000     -68.56380000
H      -44.41960000     -34.76630000     -69.15780000
C      -47.18870000     -34.17400000     -73.27650000
H      -47.29290000     -33.02980000     -73.17750000
H      -47.09000000     -34.43790000     -74.35460000
C      -46.08360000     -34.84060000     -72.46950000
H      -46.12720000     -34.48380000     -71.44940000
H      -46.18070000     -35.91730000     -72.44190000
C      -44.17680000     -32.90900000     -70.05660000
H      -44.00830000     -31.88420000     -69.64710000
H      -45.23560000     -32.92300000     -70.32240000
C      -43.21240000     -33.17220000     -71.17540000
C      -41.90270000     -32.81550000     -71.14520000
C      -43.53630000     -33.70060000     -72.47990000
H      -41.28820000     -32.53630000     -70.35510000
C      -42.52210000     -33.55140000     -73.39290000
C      -44.70650000     -34.45560000     -73.04060000
C      -44.37780000     -34.91310000     -74.29040000
S      -41.04380000     -32.90080000     -72.71710000
S      -42.80500000     -34.34380000     -74.92640000
H      -45.06340000     -35.33940000     -75.09280000
