40
Properties=species:S:1:pos:R:3 #=T CELL(abcABC):=T 1.889726e+02=T 90.00000=T Traj:=T positionsangstrom=T Step:=T 0=T Bead:=T pbc="F F F"
C      -48.25050000     -30.95710000     -70.72360000
C      -48.55350000     -32.34210000     -70.69960000
C      -47.93550000     -33.12580000     -69.73140000
C      -47.12340000     -32.59800000     -68.68510000
C      -46.87810000     -31.23260000     -68.69910000
C      -47.40420000     -30.40090000     -69.73700000
H      -48.76800000     -30.25060000     -71.38480000
H      -48.15660000     -34.21090000     -69.69590000
H      -46.16650000     -30.67110000     -68.08150000
H      -47.13910000     -29.39440000     -69.72140000
C      -46.53690000     -33.49580000     -67.61530000
H      -46.73970000     -34.52920000     -67.89650000
H      -47.04800000     -33.23640000     -66.68310000
C      -49.42740000     -32.90440000     -71.77730000
H      -50.43840000     -33.24120000     -71.45040000
H      -49.59830000     -32.18150000     -72.64920000
S      -44.62990000     -33.37330000     -67.36710000
S      -48.74430000     -34.52880000     -72.39650000
C      -43.91980000     -34.10910000     -68.87340000
H      -42.82920000     -34.14990000     -68.58610000
H      -44.23720000     -35.17920000     -68.87130000
C      -47.05810000     -34.03790000     -72.93150000
H      -46.85800000     -33.04720000     -72.56670000
H      -47.11550000     -34.14140000     -74.01830000
C      -45.94380000     -35.08570000     -72.53920000
H      -45.86340000     -35.17270000     -71.45690000
H      -46.39590000     -36.07140000     -72.85710000
C      -44.35140000     -33.24100000     -70.06680000
H      -44.35650000     -32.20870000     -69.76670000
H      -45.33110000     -33.54900000     -70.36730000
C      -43.42300000     -33.29940000     -71.25760000
C      -42.20040000     -32.67270000     -71.23160000
C      -43.61270000     -33.91030000     -72.50690000
H      -41.82200000     -32.06780000     -70.45460000
C      -42.53670000     -33.78740000     -73.38360000
C      -44.66110000     -34.70090000     -73.18850000
C      -44.39850000     -34.93160000     -74.52280000
S      -41.25270000     -32.80760000     -72.71380000
S      -42.76980000     -34.39240000     -75.03780000
H      -45.06590000     -35.56110000     -75.18930000
