40
Properties=species:S:1:pos:R:3 #=T CELL(abcABC):=T 1.889726e+02=T 90.00000=T Traj:=T positionsangstrom=T Step:=T 0=T Bead:=T pbc="F F F"
C      -46.30950000     -31.71920000     -69.40970000
C      -45.11680000     -32.23190000     -68.92520000
C      -43.90550000     -31.92900000     -69.51670000
C      -43.91630000     -31.19440000     -70.74190000
C      -45.12570000     -30.66410000     -71.18170000
C      -46.32320000     -30.85520000     -70.55460000
H      -47.29830000     -31.97790000     -68.95350000
H      -43.02720000     -32.49290000     -69.28790000
H      -44.92790000     -30.08340000     -72.10670000
H      -47.23760000     -30.33700000     -70.79670000
C      -42.62100000     -31.02850000     -71.47210000
H      -41.74240000     -31.26070000     -70.83630000
H      -42.50670000     -29.98970000     -71.67850000
C      -45.09080000     -33.13910000     -67.62670000
H      -44.14150000     -33.56130000     -67.41760000
H      -45.33040000     -32.53840000     -66.79430000
S      -42.29070000     -32.09250000     -72.99480000
S      -46.35180000     -34.44170000     -67.75220000
C      -42.36650000     -33.71370000     -72.06820000
H      -41.34600000     -34.19370000     -72.03990000
H      -42.65380000     -33.56440000     -70.99680000
C      -45.66910000     -35.89930000     -68.60580000
H      -46.42620000     -36.74770000     -68.50650000
H      -44.75320000     -36.43730000     -68.12130000
C      -45.20400000     -35.61980000     -70.09150000
H      -44.35510000     -35.01930000     -69.94500000
H      -44.77470000     -36.55830000     -70.42990000
C      -43.23580000     -34.82570000     -72.81820000
H      -43.37780000     -35.78060000     -72.23850000
H      -42.61010000     -35.07320000     -73.71480000
C      -44.58820000     -34.26970000     -73.20290000
C      -44.78890000     -33.65330000     -74.39790000
C      -45.82620000     -34.40030000     -72.38540000
H      -44.06410000     -33.55230000     -75.17450000
C      -46.94740000     -33.98690000     -73.11270000
C      -46.15430000     -35.01490000     -71.08780000
C      -47.55630000     -34.98800000     -70.89310000
S      -46.48060000     -33.34410000     -74.63760000
S      -48.42590000     -34.17960000     -72.24150000
H      -48.13810000     -35.50170000     -70.05650000
