40
Properties=species:S:1:pos:R:3 #=T CELL(abcABC):=T 1.889726e+02=T 90.00000=T Traj:=T positionsangstrom=T Step:=T 0=T Bead:=T pbc="F F F"
C      -46.23440000     -31.78990000     -69.55230000
C      -45.04200000     -32.20950000     -68.87110000
C      -43.83830000     -31.82750000     -69.45420000
C      -43.78710000     -31.14800000     -70.68300000
C      -44.97540000     -30.83180000     -71.33270000
C      -46.19960000     -31.11620000     -70.72280000
H      -47.16770000     -31.98370000     -69.07210000
H      -42.94540000     -32.26880000     -69.01760000
H      -44.99640000     -30.37240000     -72.38080000
H      -47.02190000     -30.71240000     -71.30530000
C      -42.46050000     -31.06350000     -71.45680000
H      -41.63130000     -31.36910000     -70.81060000
H      -42.29130000     -29.99520000     -71.72450000
C      -45.04980000     -33.05470000     -67.58210000
H      -44.04300000     -33.38930000     -67.53540000
H      -45.25110000     -32.41630000     -66.70370000
S      -42.39060000     -32.11730000     -72.96750000
S      -46.22110000     -34.46160000     -67.54940000
C      -42.54530000     -33.70200000     -72.18590000
H      -41.62710000     -34.06350000     -71.69510000
H      -43.30480000     -33.61470000     -71.34490000
C      -45.41460000     -35.62130000     -68.70480000
H      -46.15840000     -36.48510000     -68.92840000
H      -44.60830000     -36.13600000     -68.07770000
C      -44.95720000     -35.20440000     -70.11010000
H      -44.13830000     -34.42580000     -70.00980000
H      -44.57260000     -36.06560000     -70.58140000
C      -43.25240000     -34.78540000     -73.01800000
H      -43.34180000     -35.73890000     -72.42270000
H      -42.68600000     -34.95500000     -73.95800000
C      -44.69370000     -34.40350000     -73.39680000
C      -45.06300000     -33.85160000     -74.57580000
C      -45.86130000     -34.48070000     -72.46490000
H      -44.40370000     -33.58720000     -75.38400000
C      -47.05010000     -34.08890000     -73.08010000
C      -46.09320000     -34.74650000     -71.07140000
C      -47.40200000     -34.56270000     -70.69920000
S      -46.82830000     -33.61430000     -74.69580000
S      -48.44220000     -34.18330000     -72.03820000
H      -47.75720000     -34.63910000     -69.71120000
