40
Properties=species:S:1:pos:R:3 #=T CELL(abcABC):=T 1.889726e+02=T 90.00000=T Traj:=T positionsangstrom=T Step:=T 0=T Bead:=T pbc="F F F"
C      -46.38310000     -36.69210000     -69.39540000
C      -45.65430000     -35.76980000     -70.19270000
C      -46.30760000     -34.75300000     -70.91220000
C      -47.72620000     -34.49590000     -70.60500000
C      -48.27610000     -35.23530000     -69.56580000
C      -47.69180000     -36.34850000     -69.02720000
H      -45.86880000     -37.63600000     -69.12070000
H      -45.74670000     -34.21810000     -71.72740000
H      -49.29720000     -35.03840000     -69.30460000
H      -48.29800000     -36.80660000     -68.27320000
C      -48.58780000     -33.46540000     -71.30700000
H      -49.60690000     -33.72180000     -71.23100000
H      -48.31720000     -33.36720000     -72.33760000
C      -44.21060000     -36.04840000     -70.58540000
H      -44.02840000     -37.17230000     -70.54640000
H      -44.11970000     -35.56030000     -71.52640000
S      -48.54260000     -31.73370000     -70.52250000
S      -43.01140000     -35.29280000     -69.29550000
C      -46.82990000     -31.49390000     -69.97390000
H      -46.78430000     -31.00680000     -68.96050000
H      -46.41410000     -32.51610000     -69.79530000
C      -43.73640000     -33.64680000     -69.10810000
H      -43.62970000     -33.44380000     -68.06760000
H      -44.82130000     -33.68460000     -69.36280000
C      -43.02410000     -32.51740000     -69.89920000
H      -43.33330000     -31.58540000     -69.47640000
H      -41.94000000     -32.53640000     -69.71640000
C      -46.03020000     -30.60590000     -70.94310000
H      -45.12030000     -30.33720000     -70.33460000
H      -46.57080000     -29.71910000     -71.28100000
C      -45.57070000     -31.38650000     -72.15280000
C      -46.08040000     -31.03400000     -73.36360000
C      -44.34510000     -32.14180000     -72.26430000
H      -46.94530000     -30.33730000     -73.50120000
C      -44.07120000     -32.55210000     -73.54240000
C      -43.19100000     -32.52200000     -71.41370000
C      -42.25210000     -33.18370000     -72.12560000
S      -45.31240000     -32.03140000     -74.64360000
S      -42.49220000     -33.29140000     -73.89240000
H      -41.27320000     -33.61850000     -71.80910000
