40
Properties=species:S:1:pos:R:3 #=T CELL(abcABC):=T 1.889726e+02=T 90.00000=T Traj:=T positionsangstrom=T Step:=T 0=T Bead:=T pbc="F F F"
C      -46.35960000     -36.55400000     -69.22160000
C      -45.83430000     -35.83680000     -70.27660000
C      -46.49280000     -34.76170000     -70.91740000
C      -47.81870000     -34.45650000     -70.54340000
C      -48.40290000     -35.27620000     -69.56710000
C      -47.77410000     -36.30490000     -68.88800000
H      -45.78400000     -37.27670000     -68.73710000
H      -45.99450000     -34.24760000     -71.72260000
H      -49.44030000     -35.06810000     -69.33950000
H      -48.36520000     -37.00750000     -68.22700000
C      -48.49680000     -33.32310000     -71.23030000
H      -49.65590000     -33.43790000     -71.22530000
H      -48.21020000     -33.23770000     -72.27560000
C      -44.42070000     -35.96760000     -70.78820000
H      -44.04160000     -36.94160000     -70.96310000
H      -44.10050000     -35.58560000     -71.73210000
S      -48.32910000     -31.70730000     -70.31580000
S      -43.18010000     -35.36640000     -69.62060000
C      -46.54440000     -31.40480000     -69.83060000
H      -46.48940000     -30.93010000     -68.90430000
H      -46.08610000     -32.40620000     -69.75720000
C      -43.63570000     -33.66600000     -69.10690000
H      -43.27510000     -33.56070000     -68.09680000
H      -44.75130000     -33.63010000     -68.87390000
C      -43.10100000     -32.43990000     -69.90300000
H      -43.72560000     -31.54410000     -69.53640000
H      -42.04260000     -32.39340000     -69.64800000
C      -45.75430000     -30.55700000     -70.90060000
H      -44.75730000     -30.25300000     -70.44010000
H      -46.33230000     -29.63110000     -71.15760000
C      -45.44700000     -31.31550000     -72.13620000
C      -46.15710000     -31.23660000     -73.31770000
C      -44.22750000     -32.07510000     -72.29240000
H      -47.06400000     -30.68490000     -73.46010000
C      -43.97510000     -32.44450000     -73.62290000
C      -43.12790000     -32.52050000     -71.41900000
C      -42.24200000     -33.28740000     -72.15990000
S      -45.33330000     -32.00670000     -74.61570000
S      -42.59560000     -33.46320000     -73.91110000
H      -41.33610000     -33.82350000     -71.84370000
