40
Properties=species:S:1:pos:R:3 #=T CELL(abcABC):=T 1.889726e+02=T 90.00000=T Traj:=T positionsangstrom=T Step:=T 0=T Bead:=T pbc="F F F"
C      -46.26840000     -31.57580000     -69.79340000
C      -45.01860000     -31.86780000     -69.17380000
C      -43.83830000     -31.73950000     -69.91230000
C      -43.87460000     -31.14350000     -71.19700000
C      -45.09340000     -30.74250000     -71.73690000
C      -46.26040000     -30.98660000     -71.07140000
H      -47.24860000     -31.70910000     -69.35550000
H      -42.90860000     -32.09020000     -69.38840000
H      -45.15710000     -30.36090000     -72.80610000
H      -47.23930000     -30.84490000     -71.54100000
C      -42.58650000     -31.01380000     -72.02010000
H      -41.76460000     -31.10580000     -71.25030000
H      -42.65580000     -30.14270000     -72.56810000
C      -44.97210000     -32.51390000     -67.79020000
H      -43.94840000     -32.87720000     -67.64960000
H      -45.16630000     -31.80720000     -66.93520000
S      -42.35200000     -32.25450000     -73.38360000
S      -46.04800000     -33.94760000     -67.42340000
C      -42.49290000     -33.84320000     -72.37980000
H      -41.44360000     -34.15720000     -72.33120000
H      -42.81550000     -33.55000000     -71.35650000
C      -45.25410000     -35.41860000     -68.37420000
H      -46.02720000     -36.10960000     -68.18430000
H      -44.41980000     -35.61940000     -67.73520000
C      -44.92070000     -35.31800000     -69.84860000
H      -44.04340000     -34.59570000     -70.05020000
H      -44.53350000     -36.32230000     -70.20500000
C      -43.30780000     -34.96830000     -72.93290000
H      -43.28450000     -35.83610000     -72.25700000
H      -42.94400000     -35.36260000     -73.85980000
C      -44.80970000     -34.63420000     -73.10240000
C      -45.20040000     -34.16000000     -74.33970000
C      -45.86830000     -34.50410000     -72.13370000
H      -44.69080000     -33.98270000     -75.24940000
C      -47.05160000     -34.14850000     -72.74750000
C      -46.06000000     -34.92490000     -70.78830000
C      -47.35200000     -34.93640000     -70.45300000
S      -46.91920000     -33.76970000     -74.42100000
S      -48.44220000     -34.43800000     -71.66230000
H      -47.80630000     -35.26310000     -69.49060000
