40
Properties=species:S:1:pos:R:3 #=T CELL(abcABC):=T 1.889726e+02=T 90.00000=T Traj:=T positionsangstrom=T Step:=T 0=T Bead:=T pbc="F F F"
C      -46.16210000     -31.57990000     -69.84970000
C      -44.86360000     -31.88340000     -69.29360000
C      -43.74780000     -31.64970000     -70.07850000
C      -43.84650000     -31.18520000     -71.38120000
C      -45.07050000     -30.86390000     -71.93460000
C      -46.20320000     -31.13360000     -71.16540000
H      -47.03010000     -31.79170000     -69.31170000
H      -42.71010000     -31.94670000     -69.67550000
H      -45.19360000     -30.34040000     -72.90370000
H      -47.17800000     -30.97920000     -71.49680000
C      -42.58270000     -30.95860000     -72.17660000
H      -41.64220000     -30.99190000     -71.54880000
H      -42.57390000     -29.94690000     -72.74050000
C      -44.68130000     -32.42180000     -67.90640000
H      -43.66290000     -32.86060000     -67.73580000
H      -44.87180000     -31.65670000     -67.18180000
S      -42.57450000     -32.31930000     -73.42520000
S      -45.97000000     -33.81120000     -67.57960000
C      -42.46080000     -33.74590000     -72.35260000
H      -41.42040000     -34.06520000     -72.29190000
H      -42.84280000     -33.52200000     -71.37250000
C      -45.23140000     -35.39720000     -68.22360000
H      -45.80720000     -36.31280000     -67.92210000
H      -44.25250000     -35.53460000     -67.64490000
C      -44.89620000     -35.39030000     -69.76190000
H      -44.19140000     -34.58560000     -69.91780000
H      -44.51900000     -36.36390000     -70.03420000
C      -43.39270000     -34.89660000     -72.85060000
H      -43.20920000     -35.72150000     -72.12790000
H      -43.04140000     -35.24330000     -73.85110000
C      -44.79990000     -34.51110000     -72.97830000
C      -45.25220000     -33.98100000     -74.17960000
C      -45.93250000     -34.74770000     -72.12040000
H      -44.62090000     -33.87510000     -75.02500000
C      -47.12920000     -34.34480000     -72.69270000
C      -46.04700000     -35.01800000     -70.68700000
C      -47.31330000     -34.91790000     -70.25400000
S      -47.02690000     -33.79840000     -74.26430000
S      -48.47490000     -34.43730000     -71.59260000
H      -47.61640000     -35.15790000     -69.25160000
