40
Properties=species:S:1:pos:R:3 #=T CELL(abcABC):=T 1.889726e+02=T 90.00000=T Traj:=T positionsangstrom=T Step:=T 0=T Bead:=T pbc="F F F"
C      -46.14510000     -31.60410000     -69.91500000
C      -44.84420000     -31.81230000     -69.46340000
C      -43.75290000     -31.63090000     -70.31290000
C      -43.92890000     -31.22020000     -71.66240000
C      -45.21150000     -30.91560000     -72.13530000
C      -46.27270000     -31.07630000     -71.24170000
H      -46.97440000     -32.03030000     -69.23180000
H      -42.78140000     -31.67930000     -69.99330000
H      -45.41730000     -30.75460000     -73.14590000
H      -47.34290000     -30.85290000     -71.54620000
C      -42.69470000     -30.99670000     -72.54010000
H      -41.83560000     -30.83890000     -71.90400000
H      -43.01300000     -30.25220000     -73.30000000
C      -44.54380000     -32.27300000     -68.04320000
H      -43.53530000     -32.62910000     -67.89790000
H      -44.76010000     -31.49230000     -67.27990000
S      -42.37270000     -32.52520000     -73.50100000
S      -45.75660000     -33.61130000     -67.57740000
C      -42.51620000     -33.92490000     -72.27180000
H      -41.46220000     -34.28130000     -72.22460000
H      -42.82540000     -33.52530000     -71.29640000
C      -45.03300000     -35.21570000     -68.21900000
H      -45.67310000     -35.96290000     -67.76540000
H      -44.05040000     -35.41430000     -67.69120000
C      -44.83900000     -35.44110000     -69.69770000
H      -43.87660000     -34.97320000     -70.01050000
H      -44.64770000     -36.52410000     -69.78870000
C      -43.49520000     -34.94370000     -72.87560000
H      -43.41660000     -35.91070000     -72.30020000
H      -43.08290000     -35.17370000     -73.88210000
C      -44.90610000     -34.47310000     -72.92860000
C      -45.38460000     -33.97650000     -74.13280000
C      -45.96570000     -34.67120000     -71.95990000
H      -44.74600000     -33.66560000     -74.98760000
C      -47.23980000     -34.30130000     -72.46920000
C      -46.07370000     -35.06300000     -70.56590000
C      -47.36420000     -35.01440000     -70.06820000
S      -47.09300000     -33.76030000     -74.14980000
S      -48.57380000     -34.49210000     -71.36210000
H      -47.77080000     -35.07200000     -69.07710000
