40
Properties=species:S:1:pos:R:3 #=T CELL(abcABC):=T 1.889726e+02=T 90.00000=T Traj:=T positionsangstrom=T Step:=T 0=T Bead:=T pbc="F F F"
C      -46.18500000     -31.52340000     -70.02070000
C      -44.88580000     -31.74810000     -69.51410000
C      -43.79080000     -31.48910000     -70.37650000
C      -43.93940000     -31.17080000     -71.74310000
C      -45.22310000     -31.07360000     -72.26630000
C      -46.32220000     -31.15490000     -71.38730000
H      -47.05360000     -31.60030000     -69.36340000
H      -42.77150000     -31.76950000     -69.97370000
H      -45.29330000     -30.69340000     -73.32030000
H      -47.29650000     -30.81500000     -71.81220000
C      -42.73980000     -31.03430000     -72.63460000
H      -41.87750000     -30.59350000     -72.06890000
H      -42.97860000     -30.29050000     -73.40940000
C      -44.62820000     -32.25400000     -68.02800000
H      -43.58250000     -32.67820000     -68.18150000
H      -44.70230000     -31.41850000     -67.33830000
S      -42.28270000     -32.58250000     -73.51610000
S      -45.70950000     -33.64300000     -67.52480000
C      -42.55110000     -33.95440000     -72.35180000
H      -41.60320000     -34.41030000     -72.29490000
H      -42.79500000     -33.58310000     -71.31150000
C      -45.04210000     -35.26330000     -68.24640000
H      -45.73120000     -36.03600000     -67.91360000
H      -44.10280000     -35.42060000     -67.68400000
C      -44.73280000     -35.31720000     -69.73050000
H      -43.99690000     -34.49780000     -69.88380000
H      -44.44480000     -36.29310000     -70.04970000
C      -43.55430000     -35.02160000     -72.75160000
H      -43.64490000     -35.90160000     -72.06150000
H      -43.21830000     -35.43620000     -73.68870000
C      -44.93450000     -34.58500000     -72.90550000
C      -45.42920000     -34.05380000     -74.09460000
C      -45.98490000     -34.73930000     -71.92140000
H      -44.87530000     -33.83650000     -74.98970000
C      -47.24120000     -34.28550000     -72.41490000
C      -46.01280000     -35.06000000     -70.52760000
C      -47.29750000     -34.98930000     -70.07760000
S      -47.15540000     -33.75250000     -74.06560000
S      -48.53270000     -34.36710000     -71.26700000
H      -47.54970000     -35.20940000     -69.03870000
