40
Properties=species:S:1:pos:R:3 #=T CELL(abcABC):=T 1.889726e+02=T 90.00000=T Traj:=T positionsangstrom=T Step:=T 0=T Bead:=T pbc="F F F"
C      -46.14310000     -31.46100000     -70.10680000
C      -44.88780000     -31.84520000     -69.60400000
C      -43.78880000     -31.81080000     -70.48250000
C      -43.93590000     -31.28950000     -71.79880000
C      -45.27320000     -30.97810000     -72.29050000
C      -46.33310000     -31.08650000     -71.41120000
H      -46.97820000     -31.44890000     -69.40240000
H      -42.87110000     -32.12360000     -70.06520000
H      -45.34070000     -30.62200000     -73.30260000
H      -47.30490000     -30.69290000     -71.69320000
C      -42.70610000     -31.19670000     -72.75990000
H      -41.80330000     -31.09380000     -72.12530000
H      -42.81370000     -30.45900000     -73.53830000
C      -44.63800000     -32.26670000     -68.14120000
H      -43.58440000     -32.58170000     -68.00800000
H      -44.80920000     -31.34410000     -67.48730000
S      -42.52830000     -32.72370000     -73.77110000
S      -45.78080000     -33.49160000     -67.46710000
C      -42.39990000     -34.16530000     -72.64920000
H      -41.52940000     -34.78610000     -72.87000000
H      -42.29590000     -33.80730000     -71.66980000
C      -45.04310000     -35.05880000     -68.02190000
H      -45.71690000     -35.91330000     -67.69570000
H      -44.07000000     -35.31470000     -67.54140000
C      -44.77860000     -35.30390000     -69.53630000
H      -44.01700000     -34.62910000     -69.93520000
H      -44.36420000     -36.28610000     -69.67110000
C      -43.53140000     -35.15300000     -72.80680000
H      -43.38260000     -36.07060000     -72.22020000
H      -43.42750000     -35.41610000     -73.87750000
C      -44.90010000     -34.60250000     -72.83090000
C      -45.39920000     -34.18890000     -74.09160000
C      -45.92270000     -34.57430000     -71.80130000
H      -44.72560000     -34.04230000     -74.96870000
C      -47.14530000     -34.24310000     -72.30360000
C      -45.95780000     -34.95090000     -70.40090000
C      -47.23450000     -34.92420000     -69.92450000
S      -47.13680000     -33.79430000     -74.03120000
S      -48.44530000     -34.15320000     -71.09810000
H      -47.45140000     -35.09980000     -68.87210000
