40
Properties=species:S:1:pos:R:3 #=T CELL(abcABC):=T 1.889726e+02=T 90.00000=T Traj:=T positionsangstrom=T Step:=T 0=T Bead:=T pbc="F F F"
C      -45.77720000     -31.27480000     -69.99500000
C      -44.45900000     -31.52380000     -69.60020000
C      -43.45160000     -31.58710000     -70.59450000
C      -43.72490000     -31.24590000     -71.91840000
C      -45.03630000     -30.94660000     -72.27150000
C      -46.04130000     -30.99990000     -71.36710000
H      -46.60020000     -31.24820000     -69.25470000
H      -42.46770000     -31.77620000     -70.16310000
H      -45.29920000     -30.70270000     -73.28830000
H      -47.04880000     -30.74510000     -71.68870000
C      -42.67850000     -31.35420000     -72.92390000
H      -41.72590000     -31.35320000     -72.43190000
H      -42.72630000     -30.57140000     -73.70670000
C      -44.19840000     -31.83340000     -68.16640000
H      -43.09380000     -31.84420000     -67.92090000
H      -44.48080000     -30.96400000     -67.50240000
S      -42.79440000     -32.96920000     -73.87030000
S      -45.08200000     -33.28680000     -67.37610000
C      -42.76470000     -34.27260000     -72.58170000
H      -41.76490000     -34.78220000     -72.56910000
H      -42.77270000     -33.68590000     -71.54120000
C      -44.65340000     -34.95590000     -68.12570000
H      -45.39390000     -35.58870000     -67.69310000
H      -43.64860000     -35.30420000     -67.88400000
C      -44.72020000     -35.01830000     -69.66710000
H      -44.04730000     -34.43300000     -70.24360000
H      -44.39110000     -36.13030000     -69.91330000
C      -43.83820000     -35.36530000     -72.90460000
H      -43.65980000     -36.24200000     -72.19350000
H      -43.76980000     -35.71660000     -73.88750000
C      -45.29040000     -34.89570000     -72.93040000
C      -45.90140000     -34.66280000     -74.13990000
C      -46.21690000     -34.65120000     -71.80580000
H      -45.31890000     -34.76320000     -75.04720000
C      -47.47790000     -34.41230000     -72.26190000
C      -46.03810000     -34.74290000     -70.34240000
C      -47.22470000     -34.38810000     -69.80130000
S      -47.67430000     -34.35740000     -73.99500000
S      -48.55960000     -33.95780000     -70.93980000
H      -47.56500000     -34.43190000     -68.74790000
