40
Properties=species:S:1:pos:R:3 #=T CELL(abcABC):=T 1.889726e+02=T 90.00000=T Traj:=T positionsangstrom=T Step:=T 0=T Bead:=T pbc="F F F"
C      -45.53130000     -31.22210000     -69.75230000
C      -44.19740000     -31.62330000     -69.56180000
C      -43.33710000     -31.58280000     -70.65640000
C      -43.76370000     -31.28090000     -71.95470000
C      -45.07040000     -30.98460000     -72.11290000
C      -45.96940000     -30.93330000     -71.04380000
H      -46.31260000     -31.30610000     -68.97010000
H      -42.30020000     -31.87260000     -70.58990000
H      -45.47960000     -30.76050000     -73.08250000
H      -46.97140000     -30.62740000     -71.20790000
C      -42.75810000     -31.43410000     -73.06920000
H      -41.86880000     -31.47710000     -72.57230000
H      -42.81120000     -30.60630000     -73.84960000
C      -43.70500000     -32.01480000     -68.15580000
H      -42.70870000     -32.41430000     -68.19290000
H      -43.62060000     -31.15110000     -67.54510000
S      -43.07920000     -32.90920000     -74.12340000
S      -44.88490000     -33.09480000     -67.22990000
C      -43.00310000     -34.35370000     -72.92310000
H      -42.01820000     -34.73200000     -72.74560000
H      -43.31800000     -33.88570000     -71.94430000
C      -44.64840000     -34.72780000     -68.13400000
H      -45.48220000     -35.35360000     -67.82840000
H      -43.70650000     -35.13830000     -67.78410000
C      -44.69900000     -34.96700000     -69.67130000
H      -43.78570000     -34.49150000     -70.11900000
H      -44.50210000     -36.11660000     -69.77220000
C      -43.98380000     -35.52580000     -73.08220000
H      -43.65550000     -36.13020000     -72.22920000
H      -43.76070000     -36.02000000     -74.00660000
C      -45.44810000     -35.13090000     -73.00940000
C      -46.13140000     -35.06760000     -74.20600000
C      -46.19100000     -34.76020000     -71.83230000
H      -45.82100000     -35.17050000     -75.24110000
C      -47.49560000     -34.34200000     -72.16220000
C      -45.94410000     -34.54580000     -70.41860000
C      -47.07920000     -34.06600000     -69.74730000
S      -47.89790000     -34.58370000     -73.93240000
S      -48.46580000     -33.79720000     -70.83860000
H      -47.13490000     -33.80710000     -68.66580000
