40
Properties=species:S:1:pos:R:3 #=T CELL(abcABC):=T 1.889726e+02=T 90.00000=T Traj:=T positionsangstrom=T Step:=T 0=T Bead:=T pbc="F F F"
C      -47.00910000     -31.26550000     -68.30380000
C      -47.64790000     -32.15100000     -69.15230000
C      -47.40500000     -33.58280000     -69.05270000
C      -46.46160000     -33.97440000     -68.07100000
C      -45.69840000     -32.97830000     -67.32350000
C      -45.95950000     -31.63370000     -67.41860000
H      -47.33970000     -30.23090000     -68.32190000
H      -47.98550000     -34.31660000     -69.57850000
H      -44.84250000     -33.31120000     -66.66510000
H      -45.56270000     -30.87410000     -66.74660000
C      -46.25830000     -35.40580000     -67.77140000
H      -46.90910000     -36.09770000     -68.24950000
H      -46.19010000     -35.55910000     -66.59310000
C      -48.84420000     -31.76650000     -69.97890000
H      -49.50040000     -32.71700000     -70.05070000
H      -49.51540000     -30.96150000     -69.68580000
S      -44.65490000     -35.94820000     -68.53490000
S      -48.29780000     -31.21720000     -71.76270000
C      -44.90060000     -35.55500000     -70.29420000
H      -44.34080000     -36.25730000     -70.85250000
H      -45.98160000     -35.70000000     -70.61290000
C      -46.62340000     -31.86120000     -72.16840000
H      -46.10010000     -31.86480000     -71.22530000
H      -46.21350000     -31.08280000     -72.78420000
C      -46.69270000     -33.19770000     -72.92790000
H      -46.72730000     -33.99280000     -72.18060000
H      -47.54930000     -33.25950000     -73.57180000
C      -44.32310000     -34.13780000     -70.59780000
H      -43.54350000     -33.94440000     -69.87720000
H      -45.17670000     -33.56510000     -70.36450000
C      -43.63910000     -33.85590000     -71.91580000
C      -42.24440000     -33.95500000     -71.94860000
C      -44.18630000     -33.64620000     -73.22730000
H      -41.47400000     -33.98040000     -71.14740000
C      -43.17950000     -33.60690000     -74.22620000
C      -45.48510000     -33.40890000     -73.78660000
C      -45.45530000     -33.19200000     -75.11080000
S      -41.52500000     -33.80110000     -73.49580000
S      -43.82930000     -33.20060000     -75.78820000
H      -46.25060000     -32.98330000     -75.76770000
