40
Properties=species:S:1:pos:R:3 #=T CELL(abcABC):=T 1.889726e+02=T 90.00000=T Traj:=T positionsangstrom=T Step:=T 0=T Bead:=T pbc="F F F"
C      -45.11070000     -30.78300000     -69.75760000
C      -43.94540000     -31.59950000     -69.67400000
C      -43.21380000     -31.84010000     -70.87980000
C      -43.65340000     -31.43280000     -72.14270000
C      -44.91400000     -30.77020000     -72.24080000
C      -45.56050000     -30.44980000     -71.02460000
H      -45.74360000     -30.53920000     -68.88390000
H      -42.31340000     -32.41220000     -70.73360000
H      -45.31450000     -30.23960000     -73.16130000
H      -46.42900000     -29.86270000     -71.14910000
C      -42.95310000     -31.78160000     -73.46080000
H      -41.84220000     -31.91490000     -73.30830000
H      -43.17000000     -30.93590000     -74.17660000
C      -43.45630000     -32.18630000     -68.33410000
H      -42.65140000     -32.88960000     -68.57870000
H      -43.01440000     -31.43170000     -67.69810000
S      -43.53660000     -33.27210000     -74.25450000
S      -44.74590000     -33.13100000     -67.46750000
C      -43.13770000     -34.47490000     -72.98230000
H      -42.14080000     -34.93480000     -73.19500000
H      -43.05040000     -34.00870000     -71.95630000
C      -44.68180000     -34.87990000     -68.11930000
H      -45.56780000     -35.27170000     -67.73840000
H      -43.79830000     -35.40580000     -67.62930000
C      -44.60900000     -35.01520000     -69.61120000
H      -43.86900000     -34.35090000     -69.95790000
H      -44.31420000     -36.07550000     -69.84070000
C      -44.11670000     -35.60870000     -73.04660000
H      -43.80550000     -36.46370000     -72.41090000
H      -44.04940000     -35.88050000     -74.09660000
C      -45.56390000     -35.08890000     -72.93990000
C      -46.37870000     -34.86100000     -74.08190000
C      -46.22980000     -34.69390000     -71.72160000
H      -46.07550000     -35.01500000     -75.15950000
C      -47.53270000     -34.25610000     -71.94830000
C      -45.92320000     -34.58060000     -70.30030000
C      -47.05330000     -34.12400000     -69.60890000
S      -47.96160000     -34.23870000     -73.61660000
S      -48.46160000     -33.77630000     -70.58420000
H      -47.07470000     -33.99450000     -68.53720000
