40
Properties=species:S:1:pos:R:3 #=T CELL(abcABC):=T 1.889726e+02=T 90.00000=T Traj:=T positionsangstrom=T Step:=T 0=T Bead:=T pbc="F F F"
C      -47.25290000     -35.48710000     -68.80860000
C      -46.73060000     -35.19920000     -70.03390000
C      -46.80710000     -33.85240000     -70.46030000
C      -47.25380000     -32.74620000     -69.66630000
C      -47.67010000     -33.10710000     -68.38370000
C      -47.69490000     -34.47530000     -67.97790000
H      -47.25980000     -36.55270000     -68.56260000
H      -46.49750000     -33.61140000     -71.51850000
H      -47.89100000     -32.35290000     -67.56800000
H      -47.99750000     -34.67230000     -66.94400000
C      -47.32480000     -31.33530000     -70.19690000
H      -48.33840000     -30.90290000     -69.96220000
H      -47.18820000     -31.43590000     -71.32200000
C      -46.20290000     -36.18320000     -70.98990000
H      -46.70200000     -37.15580000     -70.96390000
H      -46.16690000     -35.79160000     -71.99700000
S      -45.95590000     -30.31600000     -69.41970000
S      -44.36830000     -36.64630000     -70.47530000
C      -44.47080000     -31.43670000     -69.52760000
H      -43.91620000     -31.32280000     -68.60190000
H      -44.74280000     -32.49120000     -69.53690000
C      -43.42450000     -35.19570000     -69.96410000
H      -42.76810000     -35.36950000     -69.10120000
H      -44.07460000     -34.38400000     -69.53610000
C      -42.69030000     -34.52860000     -71.18440000
H      -42.18640000     -33.58750000     -70.85560000
H      -41.94120000     -35.24510000     -71.52550000
C      -43.56980000     -31.20780000     -70.78700000
H      -42.54380000     -31.63780000     -70.72370000
H      -43.33610000     -30.14930000     -70.85560000
C      -44.20250000     -31.66890000     -72.04210000
C      -44.89910000     -30.75820000     -72.76080000
C      -44.18250000     -32.92880000     -72.75270000
H      -44.92420000     -29.66400000     -72.59470000
C      -45.03790000     -33.00570000     -73.80090000
C      -43.59670000     -34.21250000     -72.42910000
C      -43.88980000     -35.16120000     -73.39640000
S      -45.54990000     -31.42270000     -74.29500000
S      -44.95200000     -34.48340000     -74.64590000
H      -43.50830000     -36.18130000     -73.34710000
