40
Properties=species:S:1:pos:R:3 #=T CELL(abcABC):=T 1.889726e+02=T 90.00000=T Traj:=T positionsangstrom=T Step:=T 0=T Bead:=T pbc="F F F"
C      -45.15870000     -36.51190000     -68.96760000
C      -44.98480000     -35.21880000     -68.45900000
C      -46.13670000     -34.36860000     -68.65190000
C      -47.31370000     -34.76080000     -69.30890000
C      -47.46970000     -36.15170000     -69.69340000
C      -46.35720000     -36.99330000     -69.45770000
H      -44.26900000     -37.19650000     -68.81870000
H      -46.11340000     -33.43770000     -68.24550000
H      -48.38140000     -36.63660000     -70.04590000
H      -46.47380000     -38.07970000     -69.46820000
C      -48.51960000     -33.82750000     -69.39780000
H      -48.56650000     -33.17610000     -68.54850000
H      -49.50770000     -34.32910000     -69.26360000
C      -43.72460000     -34.73820000     -67.80940000
H      -43.85440000     -34.47200000     -66.73780000
H      -43.11270000     -35.64160000     -67.82040000
S      -48.60130000     -32.78540000     -70.93980000
S      -43.08230000     -33.20790000     -68.60860000
C      -47.41370000     -31.32800000     -70.51280000
H      -47.92220000     -30.45630000     -70.93960000
H      -47.58250000     -31.11040000     -69.42720000
C      -42.97650000     -33.65300000     -70.32300000
H      -44.02580000     -33.92690000     -70.66920000
H      -42.33090000     -34.53800000     -70.40620000
C      -42.57740000     -32.48170000     -71.18330000
H      -42.78350000     -31.50850000     -70.65640000
H      -41.45410000     -32.56460000     -71.23160000
C      -45.95060000     -31.49730000     -70.82890000
H      -45.52760000     -32.42390000     -70.30030000
H      -45.48630000     -30.61450000     -70.39390000
C      -45.69170000     -31.82670000     -72.40370000
C      -46.73050000     -31.76760000     -73.22820000
C      -44.44150000     -32.26200000     -73.04860000
H      -47.65770000     -31.25540000     -72.98170000
C      -44.65720000     -32.61590000     -74.35980000
C      -43.13450000     -32.54320000     -72.53850000
C      -42.28460000     -32.91670000     -73.61720000
S      -46.32070000     -32.41520000     -74.88790000
S      -43.20250000     -33.28400000     -75.10430000
H      -41.23800000     -33.12110000     -73.50470000
