40
Properties=species:S:1:pos:R:3 #=T CELL(abcABC):=T 1.889726e+02=T 90.00000=T Traj:=T positionsangstrom=T Step:=T 0=T Bead:=T pbc="F F F"
C      -47.54660000     -35.37520000     -68.80250000
C      -46.75430000     -35.02140000     -69.89920000
C      -46.60540000     -33.68840000     -70.31870000
C      -47.19690000     -32.62540000     -69.66600000
C      -47.86460000     -32.96210000     -68.46570000
C      -48.15460000     -34.31390000     -68.10060000
H      -47.56310000     -36.37970000     -68.46080000
H      -46.23460000     -33.45830000     -71.29570000
H      -48.29680000     -32.16590000     -67.94210000
H      -48.66340000     -34.56780000     -67.14830000
C      -47.08370000     -31.17890000     -70.00750000
H      -47.84060000     -30.53610000     -69.58470000
H      -47.00550000     -30.92060000     -71.05950000
C      -46.13090000     -36.10110000     -70.80030000
H      -46.83840000     -36.88960000     -70.78560000
H      -45.97980000     -35.73600000     -71.78150000
S      -45.57090000     -30.46040000     -69.25410000
S      -44.51660000     -36.78340000     -70.26180000
C      -44.17940000     -31.63040000     -69.62030000
H      -43.41110000     -31.54010000     -68.88040000
H      -44.56610000     -32.62850000     -69.61940000
C      -43.44270000     -35.24230000     -70.12240000
H      -42.65740000     -35.64100000     -69.47080000
H      -43.87890000     -34.43950000     -69.48610000
C      -42.71220000     -34.74080000     -71.41490000
H      -42.14330000     -33.84570000     -71.19520000
H      -41.95280000     -35.50930000     -71.69320000
C      -43.40850000     -31.23240000     -70.91600000
H      -42.50260000     -31.83350000     -70.87690000
H      -43.25100000     -30.17070000     -70.72680000
C      -44.09650000     -31.65090000     -72.19980000
C      -44.85120000     -30.69930000     -72.86480000
C      -44.26130000     -32.97580000     -72.75730000
H      -45.02120000     -29.75570000     -72.45040000
C      -44.93320000     -32.90920000     -74.01190000
C      -43.66580000     -34.27720000     -72.52780000
C      -43.99440000     -35.16730000     -73.52620000
S      -45.67450000     -31.39160000     -74.25390000
S      -45.08820000     -34.50430000     -74.72330000
H      -43.63190000     -36.17130000     -73.72460000
