40
Properties=species:S:1:pos:R:3 #=T CELL(abcABC):=T 1.889726e+02=T 90.00000=T Traj:=T positionsangstrom=T Step:=T 0=T Bead:=T pbc="F F F"
C      -47.33840000     -35.00060000     -68.62670000
C      -46.73150000     -34.70490000     -69.87410000
C      -46.65770000     -33.38610000     -70.27420000
C      -47.26640000     -32.37380000     -69.47280000
C      -47.81050000     -32.66630000     -68.21880000
C      -47.84520000     -34.02410000     -67.81680000
H      -47.33760000     -36.07880000     -68.42720000
H      -46.02640000     -33.03380000     -71.07210000
H      -48.23600000     -31.97560000     -67.52460000
H      -48.27870000     -34.23480000     -66.84640000
C      -46.91760000     -30.92430000     -69.82160000
H      -47.65120000     -30.30950000     -69.40150000
H      -46.91710000     -30.81470000     -70.87350000
C      -46.23690000     -35.70510000     -70.92840000
H      -47.00350000     -36.49790000     -71.19340000
H      -45.94890000     -35.15510000     -71.84150000
S      -45.31810000     -30.32220000     -69.17220000
S      -44.78000000     -36.72710000     -70.57370000
C      -43.96210000     -31.62130000     -69.54100000
H      -43.21640000     -31.40560000     -68.74010000
H      -44.36700000     -32.61380000     -69.24760000
C      -43.50310000     -35.45290000     -70.23880000
H      -42.80230000     -35.79740000     -69.46330000
H      -44.10400000     -34.59200000     -69.88870000
C      -42.75330000     -35.09210000     -71.54440000
H      -41.97030000     -34.35640000     -71.37570000
H      -42.27180000     -36.06800000     -71.74020000
C      -43.25380000     -31.63540000     -70.87180000
H      -42.50190000     -32.37850000     -70.68130000
H      -42.75700000     -30.65730000     -70.98130000
C      -44.05260000     -31.99060000     -72.14140000
C      -44.87170000     -30.99700000     -72.67310000
C      -44.17440000     -33.23180000     -72.85380000
H      -44.87640000     -29.89820000     -72.43890000
C      -45.04010000     -33.08880000     -73.93150000
C      -43.66720000     -34.58190000     -72.72600000
C      -44.16610000     -35.42590000     -73.75440000
S      -45.75420000     -31.49470000     -74.11930000
S      -45.28040000     -34.55250000     -74.90780000
H      -43.73740000     -36.37920000     -74.02780000
