40
Properties=species:S:1:pos:R:3 #=T CELL(abcABC):=T 1.889726e+02=T 90.00000=T Traj:=T positionsangstrom=T Step:=T 0=T Bead:=T pbc="F F F"
C      -47.34720000     -35.07540000     -68.71070000
C      -46.83070000     -34.71910000     -69.96920000
C      -46.73230000     -33.36410000     -70.29570000
C      -47.01320000     -32.36030000     -69.34890000
C      -47.55590000     -32.72980000     -68.09030000
C      -47.65470000     -34.09620000     -67.77420000
H      -47.33440000     -36.05150000     -68.31080000
H      -46.64740000     -33.11800000     -71.33620000
H      -47.74380000     -31.96450000     -67.30360000
H      -47.96840000     -34.41840000     -66.80380000
C      -46.85100000     -30.94530000     -69.74920000
H      -47.61950000     -30.28450000     -69.27280000
H      -46.98260000     -30.88300000     -70.88540000
C      -46.50640000     -35.87080000     -70.93540000
H      -47.33050000     -36.57880000     -70.79450000
H      -46.55790000     -35.62730000     -71.96640000
S      -45.15410000     -30.10730000     -69.36810000
S      -44.97480000     -36.75800000     -70.55430000
C      -44.08710000     -31.56690000     -69.46890000
H      -43.38080000     -31.56310000     -68.64830000
H      -44.72930000     -32.44490000     -69.34510000
C      -43.53160000     -35.65970000     -70.40850000
H      -42.85110000     -36.13860000     -69.71440000
H      -44.04770000     -34.84350000     -69.88950000
C      -42.69160000     -35.17320000     -71.59990000
H      -41.96290000     -34.46260000     -71.28220000
H      -42.12550000     -36.00520000     -72.07180000
C      -43.30450000     -31.61700000     -70.80610000
H      -42.53970000     -32.38930000     -70.78340000
H      -42.78790000     -30.62640000     -70.82960000
C      -44.05950000     -31.86410000     -72.09410000
C      -44.83380000     -30.91310000     -72.73650000
C      -44.20630000     -33.22500000     -72.76660000
H      -44.68070000     -29.79350000     -72.59710000
C      -45.09510000     -33.10560000     -73.89650000
C      -43.59690000     -34.58760000     -72.68480000
C      -44.15370000     -35.38130000     -73.72650000
S      -45.71470000     -31.46440000     -74.19220000
S      -45.32380000     -34.59230000     -74.75500000
H      -43.95550000     -36.41360000     -73.81150000
