40
Properties=species:S:1:pos:R:3 #=T CELL(abcABC):=T 1.889726e+02=T 90.00000=T Traj:=T positionsangstrom=T Step:=T 0=T Bead:=T pbc="F F F"
C      -46.84340000     -35.08220000     -68.51280000
C      -46.85630000     -34.80800000     -69.87610000
C      -46.82300000     -33.55400000     -70.41600000
C      -46.90620000     -32.47980000     -69.51240000
C      -46.96530000     -32.74120000     -68.15110000
C      -47.00550000     -34.02860000     -67.58420000
H      -46.51610000     -36.10040000     -68.10360000
H      -46.82880000     -33.31150000     -71.49870000
H      -47.07930000     -31.87130000     -67.49050000
H      -46.84380000     -34.27590000     -66.50910000
C      -46.77330000     -31.01730000     -69.99050000
H      -47.49540000     -30.32990000     -69.54900000
H      -46.91290000     -31.08580000     -71.11020000
C      -46.71420000     -35.99120000     -70.83380000
H      -47.42740000     -36.74340000     -70.71500000
H      -46.81530000     -35.63880000     -71.86120000
S      -45.06920000     -30.25760000     -69.55920000
S      -45.08060000     -36.82430000     -70.54370000
C      -43.89550000     -31.62810000     -69.70290000
H      -43.27210000     -31.56030000     -68.80210000
H      -44.32680000     -32.60780000     -69.53910000
C      -43.87790000     -35.36230000     -70.29750000
H      -43.26410000     -35.61400000     -69.38450000
H      -44.43200000     -34.39340000     -70.18780000
C      -42.97710000     -35.08190000     -71.53280000
H      -42.26180000     -34.31200000     -71.17240000
H      -42.32610000     -35.87420000     -71.86090000
C      -43.06220000     -31.64750000     -70.98440000
H      -42.34090000     -32.44840000     -70.88810000
H      -42.48620000     -30.72530000     -70.97320000
C      -44.02020000     -31.80620000     -72.13440000
C      -44.76940000     -30.86740000     -72.78280000
C      -44.22640000     -33.15990000     -72.83580000
H      -44.83360000     -29.87200000     -72.49460000
C      -45.21510000     -33.01100000     -73.77040000
C      -43.77210000     -34.55820000     -72.71470000
C      -44.42320000     -35.37780000     -73.62370000
S      -45.88560000     -31.45300000     -74.02690000
S      -45.53100000     -34.42020000     -74.65440000
H      -44.11820000     -36.40800000     -73.90670000
