40
Properties=species:S:1:pos:R:3 #=T CELL(abcABC):=T 1.889726e+02=T 90.00000=T Traj:=T positionsangstrom=T Step:=T 0=T Bead:=T pbc="F F F"
C      -46.95010000     -35.01140000     -68.35140000
C      -46.86430000     -34.86920000     -69.73640000
C      -46.85720000     -33.58050000     -70.30510000
C      -46.81210000     -32.46060000     -69.53670000
C      -46.88180000     -32.58370000     -68.16100000
C      -46.94700000     -33.84570000     -67.54290000
H      -47.15440000     -35.97680000     -67.81980000
H      -46.71680000     -33.51780000     -71.37120000
H      -46.87640000     -31.67740000     -67.55130000
H      -46.88150000     -33.81810000     -66.44220000
C      -46.61000000     -31.09780000     -70.17520000
H      -47.32930000     -30.37860000     -69.92600000
H      -46.59910000     -31.20350000     -71.27610000
C      -46.78540000     -36.02270000     -70.60150000
H      -47.39560000     -36.89490000     -70.25220000
H      -47.09240000     -35.71980000     -71.58390000
S      -45.10670000     -30.29430000     -69.46820000
S      -45.00370000     -36.89210000     -70.62340000
C      -43.77510000     -31.58050000     -69.68430000
H      -43.02990000     -31.37080000     -68.90120000
H      -44.21630000     -32.57360000     -69.55330000
C      -43.81470000     -35.59340000     -70.32200000
H      -43.09640000     -36.04250000     -69.64870000
H      -44.10270000     -34.74820000     -69.81170000
C      -42.99410000     -35.16240000     -71.65230000
H      -42.25840000     -34.44330000     -71.26570000
H      -42.45120000     -35.98630000     -72.13300000
C      -43.08890000     -31.56820000     -71.02200000
H      -42.31060000     -32.38880000     -71.02550000
H      -42.57430000     -30.64100000     -71.29340000
C      -43.99050000     -31.87920000     -72.24470000
C      -44.62920000     -30.81620000     -72.79110000
C      -44.37570000     -33.16210000     -72.76760000
H      -44.49000000     -29.83900000     -72.41920000
C      -45.27450000     -33.00820000     -73.81450000
C      -43.98380000     -34.54650000     -72.68430000
C      -44.56820000     -35.36100000     -73.65230000
S      -45.70300000     -31.27890000     -74.12170000
S      -45.73860000     -34.49410000     -74.64870000
H      -44.55180000     -36.45170000     -73.80930000
