40
Properties=species:S:1:pos:R:3 #=T CELL(abcABC):=T 1.889726e+02=T 90.00000=T Traj:=T positionsangstrom=T Step:=T 0=T Bead:=T pbc="F F F"
C      -45.14880000     -36.60390000     -68.94200000
C      -44.94190000     -35.25010000     -68.47850000
C      -45.97590000     -34.38060000     -68.66400000
C      -47.22040000     -34.71410000     -69.23900000
C      -47.38290000     -36.02650000     -69.73610000
C      -46.40490000     -36.95660000     -69.49990000
H      -44.31060000     -37.34810000     -68.93980000
H      -45.80560000     -33.39620000     -68.30740000
H      -48.36630000     -36.27200000     -70.20110000
H      -46.58860000     -37.91000000     -69.92500000
C      -48.42930000     -33.81510000     -69.20860000
H      -48.41490000     -33.09400000     -68.36990000
H      -49.32500000     -34.44020000     -69.29970000
C      -43.64030000     -34.85460000     -67.80250000
H      -43.68180000     -34.84040000     -66.74120000
H      -42.81060000     -35.56540000     -68.05840000
S      -48.51040000     -32.76120000     -70.80840000
S      -43.09020000     -33.14600000     -68.44850000
C      -47.36880000     -31.28710000     -70.45330000
H      -47.70090000     -30.52060000     -71.10020000
H      -47.46980000     -30.95330000     -69.40990000
C      -43.14990000     -33.60210000     -70.26970000
H      -44.15660000     -33.85030000     -70.43080000
H      -42.60220000     -34.52820000     -70.48100000
C      -42.66330000     -32.49690000     -71.21870000
H      -42.99620000     -31.56480000     -70.90460000
H      -41.54950000     -32.54290000     -71.33810000
C      -45.91260000     -31.47830000     -70.90550000
H      -45.54190000     -32.15810000     -70.20560000
H      -45.26650000     -30.58480000     -70.73980000
C      -45.77440000     -31.86550000     -72.43500000
C      -46.71750000     -31.75490000     -73.37690000
C      -44.53920000     -32.41100000     -73.00560000
H      -47.69630000     -31.29490000     -73.19720000
C      -44.67540000     -32.60590000     -74.40550000
C      -43.22570000     -32.80620000     -72.54870000
C      -42.49960000     -33.35170000     -73.64320000
S      -46.25190000     -32.15840000     -75.01550000
S      -43.31470000     -33.32330000     -75.19560000
H      -41.50820000     -33.77510000     -73.60560000
