40
Properties=species:S:1:pos:R:3 #=T CELL(abcABC):=T 1.889726e+02=T 90.00000=T Traj:=T positionsangstrom=T Step:=T 0=T Bead:=T pbc="F F F"
C      -46.93750000     -34.97660000     -68.14820000
C      -46.66750000     -34.92430000     -69.51600000
C      -46.57800000     -33.64360000     -70.12140000
C      -46.62510000     -32.46000000     -69.38190000
C      -46.92960000     -32.56420000     -68.01430000
C      -47.07930000     -33.82150000     -67.36490000
H      -47.12630000     -36.02000000     -67.88970000
H      -46.43200000     -33.49490000     -71.14050000
H      -47.01130000     -31.71970000     -67.37280000
H      -47.61530000     -33.79880000     -66.41140000
C      -46.54880000     -31.09770000     -70.08640000
H      -47.44080000     -30.45410000     -69.80250000
H      -46.63670000     -31.26000000     -71.14040000
C      -46.64130000     -36.21290000     -70.31240000
H      -47.32170000     -36.88910000     -69.82270000
H      -47.07250000     -36.05900000     -71.31740000
S      -44.98560000     -30.28090000     -69.61230000
S      -45.06800000     -37.05290000     -70.55730000
C      -43.66770000     -31.63820000     -69.77780000
H      -42.92940000     -31.32400000     -68.97740000
H      -44.12910000     -32.60560000     -69.52670000
C      -43.91570000     -35.62200000     -70.34120000
H      -43.10990000     -36.03690000     -69.64040000
H      -44.40980000     -34.72410000     -69.85830000
C      -43.24910000     -35.15420000     -71.72630000
H      -42.49510000     -34.44390000     -71.43500000
H      -42.80610000     -36.02070000     -72.30370000
C      -42.96290000     -31.70660000     -71.18090000
H      -42.26370000     -32.54420000     -71.16270000
H      -42.38460000     -30.77970000     -71.29860000
C      -43.90760000     -31.83510000     -72.37050000
C      -44.41920000     -30.71910000     -72.98890000
C      -44.45330000     -33.05580000     -72.89670000
H      -44.08320000     -29.66810000     -72.87040000
C      -45.26980000     -32.92530000     -74.05640000
C      -44.27540000     -34.51120000     -72.64390000
C      -45.02740000     -35.29150000     -73.45800000
S      -45.53230000     -31.19290000     -74.32030000
S      -45.94210000     -34.41400000     -74.64560000
H      -45.18790000     -36.30120000     -73.26670000
