40
Properties=species:S:1:pos:R:3 #=T CELL(abcABC):=T 1.889726e+02=T 90.00000=T Traj:=T positionsangstrom=T Step:=T 0=T Bead:=T pbc="F F F"
C      -42.80290000     -35.93400000     -69.16030000
C      -43.55210000     -34.96850000     -68.51160000
C      -44.93390000     -35.04740000     -68.61740000
C      -45.57710000     -36.06830000     -69.33350000
C      -44.77690000     -37.03680000     -69.95030000
C      -43.41680000     -37.00790000     -69.81010000
H      -41.66990000     -36.00100000     -69.15780000
H      -45.59860000     -34.44730000     -67.94360000
H      -45.29850000     -37.89280000     -70.43450000
H      -42.82100000     -37.74420000     -70.41270000
C      -47.02000000     -36.18210000     -69.31190000
H      -47.61550000     -35.54190000     -68.80660000
H      -47.41480000     -37.15470000     -68.98900000
C      -42.90050000     -33.74920000     -67.90320000
H      -42.51090000     -33.91730000     -66.86570000
H      -41.99760000     -33.60800000     -68.49720000
S      -47.74450000     -36.00610000     -71.05280000
S      -43.95890000     -32.20560000     -67.87050000
C      -47.24380000     -34.31560000     -71.56850000
H      -48.05240000     -33.90500000     -72.12430000
H      -46.98140000     -33.55190000     -70.78950000
C      -43.76730000     -31.59260000     -69.56140000
H      -42.66700000     -31.78150000     -69.90640000
H      -43.95960000     -30.52600000     -69.58370000
C      -44.72680000     -32.26980000     -70.61040000
H      -44.35600000     -33.27730000     -70.79610000
H      -45.75370000     -32.15540000     -70.19260000
C      -46.05140000     -34.47030000     -72.47840000
H      -46.07390000     -35.38860000     -73.05960000
H      -45.20010000     -34.53960000     -71.79320000
C      -46.00770000     -33.36380000     -73.48340000
C      -46.40190000     -33.49320000     -74.81090000
C      -45.52630000     -32.03260000     -73.16060000
H      -46.59400000     -34.39390000     -75.36730000
C      -45.73540000     -31.11600000     -74.17510000
C      -44.90390000     -31.45770000     -71.99310000
C      -44.80450000     -30.08340000     -72.12940000
S      -46.42990000     -31.86360000     -75.56970000
S      -45.30870000     -29.51540000     -73.79450000
H      -44.65240000     -29.21280000     -71.47990000
