40
Properties=species:S:1:pos:R:3 #=T CELL(abcABC):=T 1.889726e+02=T 90.00000=T Traj:=T positionsangstrom=T Step:=T 0=T Bead:=T pbc="F F F"
C      -42.75080000     -35.86350000     -69.30860000
C      -43.62180000     -34.97770000     -68.62560000
C      -44.98970000     -35.21620000     -68.69580000
C      -45.55250000     -36.17250000     -69.56910000
C      -44.65430000     -37.08410000     -70.16880000
C      -43.24310000     -36.95820000     -70.06980000
H      -41.71580000     -35.74900000     -69.30110000
H      -45.67440000     -34.47870000     -68.30520000
H      -44.99250000     -37.92860000     -70.81760000
H      -42.55200000     -37.66860000     -70.55720000
C      -47.06410000     -36.40510000     -69.46830000
H      -47.54800000     -35.74930000     -68.59010000
H      -47.15370000     -37.46460000     -69.33080000
C      -43.00950000     -33.80520000     -67.81580000
H      -42.93000000     -33.89490000     -66.77300000
H      -42.05460000     -33.57280000     -68.29480000
S      -48.01150000     -36.11580000     -70.99950000
S      -44.03140000     -32.24590000     -67.81800000
C      -47.33090000     -34.51760000     -71.74480000
H      -48.21730000     -34.15250000     -72.30920000
H      -47.10740000     -33.80820000     -70.98380000
C      -44.06080000     -31.33400000     -69.41670000
H      -43.11640000     -31.00210000     -69.74890000
H      -44.60290000     -30.39460000     -69.15930000
C      -44.79600000     -32.14020000     -70.51840000
H      -44.37260000     -33.14810000     -70.69690000
H      -45.78970000     -32.50940000     -70.20060000
C      -46.07790000     -34.52070000     -72.61270000
H      -46.07340000     -35.35540000     -73.37060000
H      -45.13500000     -34.71120000     -72.08620000
C      -45.95810000     -33.31490000     -73.50060000
C      -46.41190000     -33.30990000     -74.81150000
C      -45.47260000     -32.02630000     -73.06530000
H      -46.80990000     -34.14620000     -75.30940000
C      -45.53980000     -31.07470000     -74.08870000
C      -44.89170000     -31.41730000     -71.83570000
C      -44.90370000     -30.05890000     -71.98830000
S      -46.16100000     -31.80760000     -75.55610000
S      -45.13330000     -29.41450000     -73.61370000
H      -44.56150000     -29.43150000     -71.15380000
