40
Properties=species:S:1:pos:R:3 #=T CELL(abcABC):=T 1.889726e+02=T 90.00000=T Traj:=T positionsangstrom=T Step:=T 0=T Bead:=T pbc="F F F"
C      -42.80740000     -35.50790000     -69.76520000
C      -43.66470000     -34.86460000     -68.82920000
C      -45.04010000     -35.23190000     -68.86500000
C      -45.47930000     -36.20140000     -69.78660000
C      -44.55580000     -36.91920000     -70.55340000
C      -43.22400000     -36.55410000     -70.56940000
H      -41.75640000     -35.14310000     -69.69520000
H      -45.69470000     -34.58370000     -68.27220000
H      -44.88100000     -37.71520000     -71.16760000
H      -42.54090000     -36.96720000     -71.26530000
C      -46.96030000     -36.56960000     -69.74220000
H      -47.50150000     -36.02950000     -68.95420000
H      -47.22080000     -37.69030000     -69.58340000
C      -43.22940000     -33.64140000     -67.97530000
H      -42.78010000     -34.08900000     -67.05650000
H      -42.41640000     -33.11270000     -68.48110000
S      -47.87340000     -36.33790000     -71.43440000
S      -44.48870000     -32.40150000     -67.54470000
C      -47.43850000     -34.57920000     -71.67230000
H      -48.23410000     -34.15040000     -72.29110000
H      -47.36420000     -34.09920000     -70.66300000
C      -44.45870000     -31.47450000     -69.14420000
H      -43.43220000     -31.08020000     -69.37240000
H      -45.00540000     -30.60130000     -68.93700000
C      -44.89680000     -32.29590000     -70.34270000
H      -44.06080000     -32.93220000     -70.56270000
H      -45.76140000     -32.86350000     -70.18590000
C      -46.11810000     -34.45310000     -72.50440000
H      -45.98590000     -35.16970000     -73.23290000
H      -45.19260000     -34.41060000     -71.90770000
C      -46.04950000     -33.18630000     -73.32870000
C      -46.23690000     -33.22710000     -74.69630000
C      -45.41990000     -32.01140000     -72.90360000
H      -46.83070000     -34.00020000     -75.26530000
C      -45.33950000     -31.10400000     -73.91150000
C      -44.97110000     -31.46650000     -71.60580000
C      -44.64730000     -30.14240000     -71.72890000
S      -46.00890000     -31.66600000     -75.36720000
S      -44.87120000     -29.49740000     -73.38240000
H      -44.29420000     -29.51040000     -70.93580000
