40
Properties=species:S:1:pos:R:3 #=T CELL(abcABC):=T 1.889726e+02=T 90.00000=T Traj:=T positionsangstrom=T Step:=T 0=T Bead:=T pbc="F F F"
C      -47.06270000     -34.32690000     -67.65670000
C      -46.87720000     -34.52090000     -69.04980000
C      -46.58060000     -33.43870000     -69.91920000
C      -46.24920000     -32.14490000     -69.40870000
C      -46.28170000     -32.06450000     -68.01740000
C      -46.78800000     -33.05890000     -67.14910000
H      -47.16270000     -35.19390000     -67.09450000
H      -46.43300000     -33.78150000     -71.00150000
H      -45.92160000     -31.13200000     -67.47880000
H      -46.91400000     -32.89400000     -66.06670000
C      -45.90940000     -30.92210000     -70.19260000
H      -46.32380000     -30.01570000     -69.85160000
H      -46.25820000     -31.02860000     -71.19480000
C      -47.07760000     -35.79040000     -69.72280000
H      -47.80060000     -36.51350000     -69.27290000
H      -47.58940000     -35.55140000     -70.70300000
S      -44.12660000     -30.44660000     -70.24860000
S      -45.49760000     -36.78850000     -69.95250000
C      -43.18620000     -32.02020000     -70.45510000
H      -42.43430000     -31.98650000     -69.69200000
H      -43.94790000     -32.82190000     -70.44610000
C      -44.19830000     -35.56210000     -70.33940000
H      -43.31100000     -35.84120000     -69.72650000
H      -44.54160000     -34.59060000     -70.08880000
C      -43.74310000     -35.49290000     -71.73420000
H      -42.76360000     -34.99900000     -71.92040000
H      -43.46000000     -36.52110000     -72.03250000
C      -42.52890000     -32.25500000     -71.85140000
H      -41.91430000     -33.17190000     -71.88780000
H      -41.93440000     -31.40230000     -72.19390000
C      -43.61200000     -32.31420000     -72.88840000
C      -44.03630000     -31.19690000     -73.49680000
C      -44.55640000     -33.46200000     -73.06900000
H      -43.33570000     -30.35670000     -73.45570000
C      -45.59510000     -33.08870000     -73.98120000
C      -44.62380000     -34.80690000     -72.69980000
C      -45.71250000     -35.48270000     -73.21000000
S      -45.54190000     -31.32590000     -74.37600000
S      -46.63490000     -34.45510000     -74.32600000
H      -46.11310000     -36.45720000     -73.09630000
