40
Properties=species:S:1:pos:R:3 #=T CELL(abcABC):=T 1.889726e+02=T 90.00000=T Traj:=T positionsangstrom=T Step:=T 0=T Bead:=T pbc="F F F"
C      -42.82700000     -35.20750000     -69.37880000
C      -43.97160000     -34.77400000     -68.71050000
C      -45.22830000     -35.35060000     -68.96280000
C      -45.36350000     -36.33160000     -69.91820000
C      -44.18720000     -36.86150000     -70.50470000
C      -42.91510000     -36.28220000     -70.29240000
H      -41.88530000     -34.68740000     -69.17120000
H      -46.12710000     -35.06400000     -68.37650000
H      -44.23470000     -37.76570000     -71.11840000
H      -42.07840000     -36.51930000     -70.87890000
C      -46.66610000     -36.94820000     -70.11510000
H      -47.33780000     -36.59420000     -69.42170000
H      -46.61930000     -38.01040000     -70.16780000
C      -43.85710000     -33.76090000     -67.61380000
H      -43.82740000     -34.39980000     -66.69140000
H      -42.87520000     -33.30930000     -67.77040000
S      -47.62300000     -36.59820000     -71.68960000
S      -45.14430000     -32.49890000     -67.54100000
C      -47.18450000     -34.79210000     -72.02630000
H      -47.98560000     -34.40690000     -72.65870000
H      -47.29580000     -34.27740000     -71.04050000
C      -44.77160000     -31.47590000     -69.07970000
H      -43.72100000     -31.54410000     -69.25960000
H      -45.14010000     -30.44530000     -69.02160000
C      -45.52470000     -32.14570000     -70.28790000
H      -45.16360000     -33.10090000     -70.44830000
H      -46.65190000     -32.27320000     -70.02950000
C      -45.81040000     -34.57800000     -72.59680000
H      -45.50380000     -35.43580000     -73.34540000
H      -45.01520000     -34.69820000     -71.85700000
C      -45.58540000     -33.27900000     -73.39420000
C      -45.56160000     -33.18390000     -74.78510000
C      -45.54260000     -31.87620000     -72.84340000
H      -45.79890000     -33.97970000     -75.44020000
C      -45.38880000     -30.91010000     -73.86730000
C      -45.33030000     -31.29410000     -71.54310000
C      -44.92990000     -29.98470000     -71.59010000
S      -45.43550000     -31.55060000     -75.44440000
S      -44.97030000     -29.35290000     -73.21760000
H      -44.59250000     -29.22660000     -70.85590000
