40
Properties=species:S:1:pos:R:3 #=T CELL(abcABC):=T 1.889726e+02=T 90.00000=T Traj:=T positionsangstrom=T Step:=T 0=T Bead:=T pbc="F F F"
C      -42.88980000     -35.41380000     -69.09620000
C      -44.06010000     -34.96250000     -68.42230000
C      -45.29340000     -35.55960000     -68.63190000
C      -45.40150000     -36.55160000     -69.63650000
C      -44.27200000     -36.95920000     -70.29690000
C      -43.00970000     -36.45950000     -70.03890000
H      -41.88980000     -35.00330000     -68.86980000
H      -46.16120000     -35.11150000     -68.11120000
H      -44.37680000     -37.88960000     -70.89820000
H      -42.10260000     -36.80540000     -70.56410000
C      -46.78750000     -36.95200000     -70.12310000
H      -47.46300000     -36.47910000     -69.37150000
H      -46.83060000     -38.08380000     -70.05090000
C      -43.92720000     -33.75660000     -67.51900000
H      -44.02090000     -34.11500000     -66.48530000
H      -42.97780000     -33.22580000     -67.64650000
S      -47.38790000     -36.50310000     -71.83640000
S      -45.32070000     -32.41740000     -67.38350000
C      -46.99410000     -34.70240000     -72.03340000
H      -47.84460000     -34.28990000     -72.42810000
H      -46.85230000     -34.27330000     -70.98300000
C      -45.16630000     -31.48780000     -69.04350000
H      -44.11050000     -31.18410000     -69.09450000
H      -45.79210000     -30.59440000     -68.79180000
C      -45.51570000     -32.23310000     -70.40830000
H      -44.87530000     -33.02760000     -70.30550000
H      -46.53520000     -32.61370000     -70.24250000
C      -45.70270000     -34.59790000     -72.95440000
H      -45.66480000     -35.35870000     -73.76960000
H      -44.80320000     -34.83840000     -72.36930000
C      -45.48770000     -33.18660000     -73.62390000
C      -45.43020000     -33.11300000     -75.02250000
C      -45.39490000     -31.87330000     -73.03410000
H      -45.30430000     -34.02630000     -75.58870000
C      -45.35070000     -30.81320000     -73.99380000
C      -45.41530000     -31.33130000     -71.64750000
C      -45.13820000     -29.98600000     -71.61640000
S      -45.19380000     -31.46630000     -75.60120000
S      -45.02020000     -29.25780000     -73.24800000
H      -45.17140000     -29.37600000     -70.74720000
