40
Properties=species:S:1:pos:R:3 #=T CELL(abcABC):=T 1.889726e+02=T 90.00000=T Traj:=T positionsangstrom=T Step:=T 0=T Bead:=T pbc="F F F"
C      -42.98090000     -35.37540000     -69.03760000
C      -44.16390000     -34.76290000     -68.50830000
C      -45.42630000     -35.23520000     -68.83250000
C      -45.57830000     -36.29860000     -69.69180000
C      -44.41300000     -36.82090000     -70.26970000
C      -43.13460000     -36.36820000     -70.00030000
H      -42.02460000     -34.98270000     -68.83380000
H      -46.25000000     -34.72900000     -68.32010000
H      -44.56030000     -37.57950000     -71.05330000
H      -42.23940000     -36.64900000     -70.49910000
C      -46.87440000     -36.84040000     -69.96630000
H      -47.67880000     -36.45360000     -69.34610000
H      -46.97540000     -37.92750000     -69.74680000
C      -44.04750000     -33.66250000     -67.52930000
H      -43.94810000     -34.04750000     -66.48020000
H      -43.06080000     -33.25990000     -67.65730000
S      -47.27990000     -36.66070000     -71.84390000
S      -45.38730000     -32.43620000     -67.64050000
C      -46.88430000     -34.85100000     -72.13560000
H      -47.63700000     -34.57190000     -72.87840000
H      -47.02790000     -34.29250000     -71.23710000
C      -44.95900000     -31.44380000     -69.12180000
H      -43.90530000     -31.19760000     -69.19070000
H      -45.62760000     -30.57220000     -68.95040000
C      -45.42540000     -32.17830000     -70.31760000
H      -44.82370000     -33.07470000     -70.47800000
H      -46.49780000     -32.51530000     -70.27390000
C      -45.42000000     -34.64680000     -72.81420000
H      -45.23840000     -35.48620000     -73.41310000
H      -44.72530000     -34.74930000     -71.95450000
C      -45.31520000     -33.31250000     -73.55880000
C      -45.35270000     -33.18960000     -74.96930000
C      -45.26880000     -32.01260000     -72.93370000
H      -45.41920000     -34.02740000     -75.63050000
C      -45.20740000     -30.98080000     -73.83970000
C      -45.37100000     -31.37620000     -71.60610000
C      -45.10850000     -30.03710000     -71.63450000
S      -45.20900000     -31.46600000     -75.52330000
S      -45.16360000     -29.31000000     -73.18890000
H      -45.05590000     -29.43790000     -70.79220000
