40
Properties=species:S:1:pos:R:3 #=T CELL(abcABC):=T 1.889726e+02=T 90.00000=T Traj:=T positionsangstrom=T Step:=T 0=T Bead:=T pbc="F F F"
C      -43.12710000     -35.38240000     -68.75010000
C      -44.22080000     -34.66780000     -68.37360000
C      -45.47580000     -35.08790000     -68.91240000
C      -45.60950000     -36.17160000     -69.79280000
C      -44.43520000     -36.77960000     -70.26060000
C      -43.22960000     -36.39700000     -69.70440000
H      -42.12970000     -35.11570000     -68.30680000
H      -46.38170000     -34.59680000     -68.64440000
H      -44.39910000     -37.66580000     -70.83230000
H      -42.34110000     -36.96360000     -69.97090000
C      -46.94060000     -36.70040000     -70.22340000
H      -47.81850000     -36.07180000     -69.82990000
H      -47.14500000     -37.71530000     -69.80660000
C      -44.13200000     -33.58830000     -67.35940000
H      -44.51280000     -34.05090000     -66.44660000
H      -43.07040000     -33.25650000     -67.11360000
S      -47.14260000     -36.80220000     -72.03570000
S      -45.32070000     -32.14900000     -67.40850000
C      -46.88690000     -35.04900000     -72.72030000
H      -47.17320000     -35.01220000     -73.77290000
H      -47.58450000     -34.40920000     -72.25060000
C      -45.15770000     -31.20580000     -68.99870000
H      -44.23950000     -30.63470000     -68.82010000
H      -46.03300000     -30.53600000     -68.96680000
C      -45.25790000     -32.03190000     -70.30230000
H      -44.35790000     -32.72000000     -70.33170000
H      -46.12050000     -32.68300000     -70.17360000
C      -45.43300000     -34.58070000     -72.51960000
H      -44.85060000     -35.44390000     -72.73350000
H      -45.28670000     -34.37450000     -71.52400000
C      -45.07910000     -33.35810000     -73.33060000
C      -44.93690000     -33.44450000     -74.72930000
C      -45.29800000     -31.95150000     -72.91230000
H      -44.69410000     -34.36580000     -75.27210000
C      -45.29390000     -31.06880000     -73.96880000
C      -45.29020000     -31.27480000     -71.60990000
C      -45.28950000     -29.92280000     -71.80560000
S      -45.05150000     -31.86920000     -75.49890000
S      -45.44600000     -29.35010000     -73.46730000
H      -45.13150000     -29.16300000     -71.01280000
