40
Properties=species:S:1:pos:R:3 #=T CELL(abcABC):=T 1.889726e+02=T 90.00000=T Traj:=T positionsangstrom=T Step:=T 0=T Bead:=T pbc="F F F"
C      -43.14030000     -35.29110000     -68.75160000
C      -44.30850000     -34.62040000     -68.35030000
C      -45.49510000     -35.08970000     -68.80910000
C      -45.62590000     -36.21860000     -69.69380000
C      -44.45500000     -36.90860000     -69.99280000
C      -43.24430000     -36.48830000     -69.47770000
H      -42.15280000     -35.12440000     -68.26030000
H      -46.48050000     -34.69530000     -68.40550000
H      -44.52990000     -37.79860000     -70.64650000
H      -42.39670000     -37.03790000     -69.85840000
C      -47.01250000     -36.64500000     -70.17950000
H      -47.73780000     -35.92780000     -69.92880000
H      -47.32950000     -37.60220000     -69.78070000
C      -44.10540000     -33.31580000     -67.47800000
H      -43.81230000     -33.63260000     -66.44380000
H      -43.23550000     -32.80000000     -67.82740000
S      -47.02900000     -36.88230000     -72.14920000
S      -45.50650000     -32.10940000     -67.52450000
C      -46.64270000     -35.15390000     -72.78620000
H      -46.73110000     -35.27000000     -73.85590000
H      -47.44850000     -34.50480000     -72.26900000
C      -45.19620000     -31.14110000     -69.09540000
H      -44.31060000     -30.47010000     -68.99600000
H      -46.05340000     -30.47980000     -69.13680000
C      -45.18940000     -32.04670000     -70.32450000
H      -44.26390000     -32.56460000     -70.40870000
H      -45.93900000     -32.88980000     -70.15780000
C      -45.27030000     -34.58500000     -72.45480000
H      -44.46670000     -35.38660000     -72.61420000
H      -45.15050000     -34.27650000     -71.45930000
C      -45.10210000     -33.36440000     -73.32270000
C      -45.16320000     -33.41600000     -74.74090000
C      -45.25840000     -31.99330000     -72.90770000
H      -44.84640000     -34.29570000     -75.34360000
C      -45.18720000     -31.06770000     -73.93550000
C      -45.38050000     -31.33720000     -71.64860000
C      -45.48640000     -29.97120000     -71.77260000
S      -44.97390000     -31.80640000     -75.49370000
S      -45.40940000     -29.39920000     -73.43320000
H      -45.69780000     -29.27150000     -70.94590000
