40
Properties=species:S:1:pos:R:3 #=T CELL(abcABC):=T 1.889726e+02=T 90.00000=T Traj:=T positionsangstrom=T Step:=T 0=T Bead:=T pbc="F F F"
C      -43.23160000     -35.13560000     -68.40540000
C      -44.37910000     -34.40310000     -68.20050000
C      -45.56890000     -34.95640000     -68.73270000
C      -45.53180000     -36.10630000     -69.51710000
C      -44.33270000     -36.83420000     -69.70100000
C      -43.16530000     -36.35560000     -69.03010000
H      -42.31750000     -34.75810000     -68.02500000
H      -46.53990000     -34.50310000     -68.51360000
H      -44.38090000     -37.70550000     -70.34380000
H      -42.20110000     -36.85100000     -69.14940000
C      -46.76790000     -36.70510000     -70.19750000
H      -47.58440000     -36.01640000     -70.07410000
H      -47.19730000     -37.53390000     -69.67910000
C      -44.35000000     -33.06220000     -67.44370000
H      -44.36790000     -33.20010000     -66.38390000
H      -43.37620000     -32.55730000     -67.58440000
S      -46.59110000     -37.03990000     -71.94350000
S      -45.81080000     -32.04860000     -67.62680000
C      -46.61890000     -35.37440000     -72.61030000
H      -47.03460000     -35.59730000     -73.64550000
H      -47.38530000     -34.77770000     -72.12830000
C      -45.64560000     -31.15500000     -69.31790000
H      -44.71130000     -30.60880000     -69.29910000
H      -46.53170000     -30.48580000     -69.23430000
C      -45.71930000     -32.08610000     -70.47810000
H      -45.05880000     -33.00620000     -70.30550000
H      -46.73570000     -32.53790000     -70.42000000
C      -45.30830000     -34.71110000     -72.73730000
H      -44.59390000     -35.34430000     -73.19610000
H      -44.87470000     -34.36170000     -71.71130000
C      -45.35490000     -33.41380000     -73.58970000
C      -45.16160000     -33.43260000     -74.96760000
C      -45.40820000     -32.06760000     -73.06760000
H      -45.14120000     -34.27860000     -75.62810000
C      -45.25510000     -31.07880000     -74.04220000
C      -45.51270000     -31.39060000     -71.78380000
C      -45.28500000     -30.05060000     -71.82340000
S      -44.97560000     -31.78910000     -75.64390000
S      -44.96560000     -29.46000000     -73.41580000
H      -44.97610000     -29.43240000     -70.98490000
