40
Properties=species:S:1:pos:R:3 #=T CELL(abcABC):=T 1.889726e+02=T 90.00000=T Traj:=T positionsangstrom=T Step:=T 0=T Bead:=T pbc="F F F"
C      -45.05810000     -36.42600000     -68.85390000
C      -45.05230000     -35.19280000     -68.19810000
C      -46.22070000     -34.37750000     -68.30860000
C      -47.33470000     -34.63570000     -69.16250000
C      -47.23820000     -35.82780000     -69.88760000
C      -46.11510000     -36.68320000     -69.71990000
H      -44.22990000     -37.03210000     -68.89650000
H      -46.15330000     -33.42860000     -67.67490000
H      -48.00780000     -36.16500000     -70.53980000
H      -46.12960000     -37.62780000     -70.30200000
C      -48.47720000     -33.69080000     -69.26850000
H      -48.46860000     -33.02010000     -68.43170000
H      -49.42420000     -34.18480000     -69.11040000
C      -43.73920000     -34.72460000     -67.53060000
H      -44.01820000     -34.30580000     -66.53710000
H      -42.96670000     -35.49050000     -67.42010000
S      -48.28720000     -32.82200000     -70.88590000
S      -42.93390000     -33.41360000     -68.53390000
C      -47.24950000     -31.37960000     -70.40840000
H      -47.72460000     -30.42450000     -70.77150000
H      -47.18100000     -31.20280000     -69.36110000
C      -43.18420000     -34.01180000     -70.35650000
H      -44.27830000     -34.21290000     -70.37590000
H      -42.66360000     -34.91990000     -70.50640000
C      -42.77140000     -32.87560000     -71.31350000
H      -43.00930000     -31.87390000     -70.86300000
H      -41.69070000     -32.88820000     -71.38620000
C      -45.82830000     -31.24430000     -70.96020000
H      -45.12860000     -31.80840000     -70.24610000
H      -45.60090000     -30.21520000     -70.84270000
C      -45.68000000     -31.62500000     -72.46720000
C      -46.70720000     -31.42830000     -73.31380000
C      -44.56130000     -32.33800000     -73.08410000
H      -47.64590000     -30.85750000     -73.26910000
C      -44.75140000     -32.51540000     -74.45860000
C      -43.33280000     -32.92150000     -72.65430000
C      -42.65200000     -33.59560000     -73.68830000
S      -46.30200000     -31.90210000     -74.99620000
S      -43.53460000     -33.57370000     -75.16070000
H      -41.58370000     -33.86830000     -73.62930000
