40
Properties=species:S:1:pos:R:3 #=T CELL(abcABC):=T 1.889726e+02=T 90.00000=T Traj:=T positionsangstrom=T Step:=T 0=T Bead:=T pbc="F F F"
C      -48.98760000     -31.07970000     -71.47480000
C      -48.66890000     -32.23600000     -72.26990000
C      -48.32430000     -33.43840000     -71.58270000
C      -48.47320000     -33.52650000     -70.15410000
C      -48.72420000     -32.33730000     -69.44330000
C      -48.85710000     -31.11220000     -70.12530000
H      -49.29150000     -30.08580000     -71.90590000
H      -48.16900000     -34.33050000     -72.19550000
H      -48.67700000     -32.35980000     -68.34050000
H      -49.12940000     -30.23260000     -69.51330000
C      -48.21400000     -34.91660000     -69.47530000
H      -47.92850000     -35.79390000     -70.08350000
H      -49.18860000     -35.09030000     -68.98450000
C      -48.74860000     -32.31970000     -73.80060000
H      -49.11740000     -33.36160000     -74.13770000
H      -49.39280000     -31.54110000     -74.29150000
S      -47.05550000     -34.94290000     -68.05510000
S      -47.01170000     -31.88360000     -74.59530000
C      -45.42250000     -34.31310000     -68.87020000
H      -45.73550000     -33.33990000     -69.29530000
H      -44.66460000     -34.35420000     -68.06000000
C      -45.92080000     -31.90170000     -73.16780000
H      -46.50100000     -31.74490000     -72.29610000
H      -45.27810000     -31.02360000     -73.27750000
C      -45.11450000     -33.26660000     -73.11860000
H      -45.62000000     -33.82910000     -72.36460000
H      -45.32440000     -33.74390000     -74.05380000
C      -44.89010000     -35.32130000     -69.98080000
H      -45.62900000     -35.11010000     -70.82390000
H      -44.87760000     -36.33510000     -69.66400000
C      -43.54320000     -34.84760000     -70.40010000
C      -42.38840000     -35.27100000     -69.66160000
C      -43.09150000     -33.93080000     -71.50830000
H      -42.48720000     -35.85350000     -68.73190000
C      -41.71560000     -33.76910000     -71.48100000
C      -43.62040000     -33.28920000     -72.71960000
C      -42.74720000     -32.54750000     -73.38240000
S      -40.87770000     -34.55740000     -70.18390000
S      -41.05480000     -32.70560000     -72.67980000
H      -42.78250000     -32.06660000     -74.35840000
