40
Properties=species:S:1:pos:R:3 #=T CELL(abcABC):=T 1.889726e+02=T 90.00000=T Traj:=T positionsangstrom=T Step:=T 0=T Bead:=T pbc="F F F"
C      -43.66010000     -33.80940000     -68.05700000
C      -45.01740000     -33.64250000     -67.94050000
C      -45.81630000     -34.65890000     -68.46320000
C      -45.27760000     -35.83850000     -69.09490000
C      -43.88950000     -35.91770000     -69.21390000
C      -43.10440000     -34.86780000     -68.72030000
H      -43.00150000     -33.14110000     -67.55900000
H      -46.88590000     -34.66270000     -68.31120000
H      -43.43480000     -36.63160000     -69.76000000
H      -42.05510000     -34.98610000     -68.70410000
C      -46.19680000     -36.79000000     -69.71650000
H      -47.29000000     -36.36470000     -69.54240000
H      -46.35300000     -37.67670000     -69.08120000
C      -45.58080000     -32.45270000     -67.25830000
H      -45.91460000     -32.94300000     -66.31480000
H      -44.83500000     -31.73070000     -66.89620000
S      -45.89410000     -37.35120000     -71.38410000
S      -47.00710000     -31.73630000     -68.13670000
C      -46.07860000     -35.82340000     -72.45520000
H      -46.40080000     -36.18820000     -73.48110000
H      -47.01010000     -35.32720000     -71.97050000
C      -46.16680000     -31.12350000     -69.66160000
H      -45.19040000     -30.79670000     -69.33250000
H      -46.63260000     -30.25060000     -70.06470000
C      -46.06560000     -32.18030000     -70.82260000
H      -45.28920000     -32.92590000     -70.58910000
H      -46.97290000     -32.71670000     -71.05900000
C      -44.84070000     -34.95660000     -72.47260000
H      -43.99540000     -35.52430000     -72.69470000
H      -44.62740000     -34.52570000     -71.50510000
C      -44.87100000     -33.77100000     -73.49340000
C      -44.34970000     -33.94400000     -74.76610000
C      -45.09940000     -32.41080000     -73.18770000
H      -43.85080000     -34.85020000     -75.17660000
C      -44.80110000     -31.55240000     -74.27340000
C      -45.63740000     -31.56910000     -72.08250000
C      -45.71750000     -30.25460000     -72.43330000
S      -44.16870000     -32.42340000     -75.67400000
S      -45.41280000     -29.94820000     -74.08790000
H      -45.90490000     -29.47750000     -71.76440000
