40
Properties=species:S:1:pos:R:3 #=T CELL(abcABC):=T 1.889726e+02=T 90.00000=T Traj:=T positionsangstrom=T Step:=T 0=T Bead:=T pbc="F F F"
C      -43.78430000     -33.62830000     -68.20390000
C      -45.19400000     -33.66780000     -68.01260000
C      -45.88650000     -34.80490000     -68.45990000
C      -45.16840000     -35.88670000     -69.03990000
C      -43.82070000     -35.82390000     -69.25650000
C      -43.13310000     -34.72710000     -68.77340000
H      -43.18570000     -32.84470000     -67.77110000
H      -46.96550000     -34.85000000     -68.32290000
H      -43.18640000     -36.51750000     -69.85120000
H      -42.05810000     -34.74560000     -69.04030000
C      -45.91870000     -37.05250000     -69.64840000
H      -47.01820000     -36.84860000     -69.73370000
H      -45.82810000     -38.12830000     -69.30620000
C      -45.90930000     -32.54420000     -67.30430000
H      -46.23220000     -32.77960000     -66.28770000
H      -45.20100000     -31.69640000     -67.21550000
S      -45.44060000     -37.41020000     -71.47460000
S      -47.36710000     -31.90690000     -68.21890000
C      -45.74940000     -35.73640000     -72.30990000
H      -45.96980000     -36.00750000     -73.40320000
H      -46.69050000     -35.23290000     -71.85150000
C      -46.73010000     -31.11490000     -69.78220000
H      -46.01400000     -30.39400000     -69.50610000
H      -47.64510000     -30.52810000     -70.02820000
C      -46.07920000     -32.06210000     -70.79240000
H      -45.20450000     -32.57800000     -70.26910000
H      -46.82030000     -32.75170000     -71.13090000
C      -44.62310000     -34.68410000     -72.19760000
H      -43.60730000     -35.04410000     -72.24420000
H      -44.73690000     -34.19200000     -71.29810000
C      -44.71340000     -33.66940000     -73.31850000
C      -44.25560000     -33.95480000     -74.56010000
C      -45.19720000     -32.27460000     -73.13960000
H      -44.07290000     -35.01870000     -74.86350000
C      -44.95330000     -31.61870000     -74.33310000
C      -45.52820000     -31.43510000     -72.04610000
C      -45.68070000     -30.12540000     -72.44360000
S      -44.27450000     -32.60530000     -75.68540000
S      -45.31560000     -29.85970000     -74.08140000
H      -46.06840000     -29.25120000     -71.88570000
