40
Properties=species:S:1:pos:R:3 #=T CELL(abcABC):=T 1.889726e+02=T 90.00000=T Traj:=T positionsangstrom=T Step:=T 0=T Bead:=T pbc="F F F"
C      -44.94650000     -36.29250000     -68.93570000
C      -44.99460000     -35.07450000     -68.23670000
C      -46.11650000     -34.27670000     -68.39110000
C      -47.24790000     -34.66440000     -69.13790000
C      -47.16610000     -35.90870000     -69.80290000
C      -46.03120000     -36.68390000     -69.64100000
H      -44.08020000     -36.91490000     -68.86170000
H      -46.21600000     -33.30340000     -67.88640000
H      -47.99260000     -36.31830000     -70.34160000
H      -45.96490000     -37.69880000     -70.17990000
C      -48.41330000     -33.65740000     -69.34400000
H      -48.39540000     -32.84220000     -68.58180000
H      -49.39320000     -34.18100000     -69.42980000
C      -43.76860000     -34.62140000     -67.44150000
H      -44.01190000     -34.07880000     -66.55600000
H      -43.28450000     -35.54280000     -67.09630000
S      -48.31480000     -32.78610000     -70.97340000
S      -42.65740000     -33.59540000     -68.56160000
C      -47.34910000     -31.24480000     -70.50570000
H      -47.78670000     -30.50960000     -71.11080000
H      -47.41370000     -31.06530000     -69.41990000
C      -43.39190000     -33.76100000     -70.27650000
H      -44.48710000     -33.62580000     -70.13180000
H      -43.20660000     -34.80750000     -70.57810000
C      -42.75900000     -32.87070000     -71.32960000
H      -42.86130000     -31.82930000     -70.95680000
H      -41.73000000     -33.15510000     -71.43530000
C      -45.84810000     -31.49790000     -70.86290000
H      -45.48580000     -32.46330000     -70.36580000
H      -45.23460000     -30.77940000     -70.29460000
C      -45.65710000     -31.64900000     -72.37280000
C      -46.59930000     -31.22640000     -73.24260000
C      -44.62460000     -32.46560000     -73.05520000
H      -47.52300000     -30.63090000     -73.11110000
C      -44.95060000     -32.70120000     -74.38140000
C      -43.37590000     -33.07980000     -72.63130000
C      -42.73840000     -33.63830000     -73.75370000
S      -46.36970000     -31.84490000     -74.92510000
S      -43.67700000     -33.53990000     -75.23240000
H      -41.77180000     -34.17320000     -73.61660000
