40
Properties=species:S:1:pos:R:3 #=T CELL(abcABC):=T 1.889726e+02=T 90.00000=T Traj:=T positionsangstrom=T Step:=T 0=T Bead:=T pbc="F F F"
C      -45.06090000     -33.16600000     -67.64230000
C      -45.52350000     -33.45820000     -68.91470000
C      -45.01660000     -32.59490000     -69.96000000
C      -44.05660000     -31.69890000     -69.80450000
C      -43.58810000     -31.41950000     -68.45540000
C      -44.14650000     -32.13300000     -67.43250000
H      -45.55840000     -33.72280000     -66.83140000
H      -45.44720000     -32.81850000     -70.95920000
H      -42.88500000     -30.64790000     -68.21480000
H      -43.84460000     -31.96810000     -66.47410000
C      -43.40390000     -31.03310000     -70.99930000
H      -42.99890000     -30.05100000     -70.69800000
H      -44.08740000     -30.77400000     -71.78270000
C      -46.74260000     -34.27500000     -69.17760000
H      -47.47690000     -34.13980000     -68.30520000
H      -47.27170000     -33.90660000     -70.04420000
S      -41.95460000     -31.95740000     -71.75840000
S      -46.32570000     -36.19920000     -69.39180000
C      -42.50320000     -33.60740000     -72.23120000
H      -41.63270000     -34.16140000     -72.26200000
H      -43.02850000     -34.11360000     -71.42040000
C      -44.91430000     -36.16350000     -70.56000000
H      -44.35160000     -37.01750000     -70.40150000
H      -44.30020000     -35.32260000     -70.36750000
C      -45.35930000     -36.19000000     -72.06790000
H      -44.46870000     -36.23000000     -72.70490000
H      -45.82120000     -37.19020000     -72.05920000
C      -43.32510000     -33.68090000     -73.58720000
H      -43.40630000     -34.75070000     -73.69500000
H      -42.76490000     -33.23680000     -74.41150000
C      -44.76400000     -33.08180000     -73.43280000
C      -45.00590000     -31.80910000     -73.84070000
C      -45.98010000     -33.76980000     -72.99140000
H      -44.45470000     -31.01280000     -74.32940000
C      -47.07010000     -32.90330000     -72.94410000
C      -46.27300000     -35.09420000     -72.56360000
C      -47.64710000     -35.17710000     -72.24060000
S      -46.70840000     -31.32870000     -73.57160000
S      -48.59580000     -33.70030000     -72.37750000
H      -48.12080000     -36.06090000     -71.91310000
