40
Properties=species:S:1:pos:R:3 #=T CELL(abcABC):=T 1.889726e+02=T 90.00000=T Traj:=T positionsangstrom=T Step:=T 0=T Bead:=T pbc="F F F"
C      -44.67340000     -33.23530000     -67.49790000
C      -45.24470000     -33.42170000     -68.75330000
C      -44.75790000     -32.52980000     -69.81190000
C      -43.66010000     -31.70610000     -69.63550000
C      -43.05480000     -31.66930000     -68.34070000
C      -43.53850000     -32.49200000     -67.27470000
H      -45.13730000     -33.70600000     -66.64920000
H      -45.20960000     -32.58880000     -70.80980000
H      -42.23460000     -31.01590000     -68.19320000
H      -43.13640000     -32.40040000     -66.23340000
C      -43.20670000     -30.85000000     -70.73810000
H      -42.61600000     -30.08020000     -70.40050000
H      -44.09450000     -30.37810000     -71.22490000
C      -46.45090000     -34.31660000     -68.93660000
H      -47.02610000     -34.12680000     -68.00790000
H      -47.07560000     -33.93680000     -69.71740000
S      -42.11000000     -31.64500000     -71.99600000
S      -46.02600000     -36.12430000     -69.09920000
C      -42.69630000     -33.52080000     -72.05230000
H      -41.73070000     -34.11830000     -72.07260000
H      -43.12170000     -33.82040000     -71.11780000
C      -45.10100000     -36.06860000     -70.68430000
H      -44.37390000     -36.88960000     -70.61610000
H      -44.70360000     -35.11700000     -70.85210000
C      -45.92740000     -36.35950000     -71.96490000
H      -45.33760000     -36.64670000     -72.78190000
H      -46.66480000     -37.11660000     -71.76770000
C      -43.51810000     -33.86040000     -73.29090000
H      -43.51260000     -34.94640000     -73.31090000
H      -43.00160000     -33.52110000     -74.18550000
C      -44.90360000     -33.24960000     -73.34090000
C      -45.01260000     -31.95160000     -73.71110000
C      -46.22920000     -33.86140000     -73.00440000
H      -44.21060000     -31.37370000     -74.09570000
C      -47.25800000     -33.01220000     -73.30700000
C      -46.71340000     -35.11700000     -72.34380000
C      -48.08590000     -35.08100000     -72.33130000
S      -46.69850000     -31.39870000     -73.76000000
S      -48.87990000     -33.60690000     -73.02050000
H      -48.75810000     -35.93110000     -71.89620000
