40
Properties=species:S:1:pos:R:3 #=T CELL(abcABC):=T 1.889726e+02=T 90.00000=T Traj:=T positionsangstrom=T Step:=T 0=T Bead:=T pbc="F F F"
C      -44.21410000     -33.70030000     -67.67890000
C      -45.21690000     -33.42220000     -68.59650000
C      -45.00350000     -32.39620000     -69.48840000
C      -43.70870000     -31.80170000     -69.64860000
C      -42.68190000     -32.13300000     -68.68290000
C      -42.94640000     -33.06590000     -67.71510000
H      -44.43270000     -34.44210000     -66.90830000
H      -45.73920000     -32.16470000     -70.23280000
H      -41.71050000     -31.73280000     -68.84570000
H      -42.14960000     -33.35550000     -66.93280000
C      -43.43540000     -30.84240000     -70.74830000
H      -42.91440000     -29.93550000     -70.43750000
H      -44.49080000     -30.57570000     -71.17710000
C      -46.50600000     -34.13910000     -68.62880000
H      -46.96370000     -34.02930000     -67.62580000
H      -47.22020000     -33.59970000     -69.30240000
S      -42.29510000     -31.54140000     -71.92620000
S      -46.25090000     -35.92820000     -68.97760000
C      -42.75870000     -33.39180000     -71.99550000
H      -41.89020000     -34.01640000     -71.97740000
H      -43.28460000     -33.58410000     -71.07420000
C      -45.20960000     -35.97220000     -70.52770000
H      -44.53960000     -36.84450000     -70.31890000
H      -44.53780000     -35.04670000     -70.37060000
C      -45.88910000     -36.20240000     -71.90470000
H      -45.10770000     -36.46470000     -72.64860000
H      -46.48070000     -37.14610000     -71.80710000
C      -43.52470000     -33.91100000     -73.20420000
H      -43.60670000     -34.99620000     -73.03920000
H      -42.92170000     -33.80710000     -74.15320000
C      -44.89380000     -33.29160000     -73.43420000
C      -45.01930000     -32.04620000     -73.94320000
C      -46.20000000     -33.80710000     -73.05210000
H      -44.13040000     -31.58240000     -74.30010000
C      -47.26970000     -32.99330000     -73.37760000
C      -46.68260000     -35.02510000     -72.43810000
C      -48.07900000     -34.98920000     -72.25710000
S      -46.66410000     -31.43990000     -74.10910000
S      -48.83810000     -33.50870000     -72.77830000
H      -48.64960000     -35.87180000     -71.87000000
