40
Properties=species:S:1:pos:R:3 #=T CELL(abcABC):=T 1.889726e+02=T 90.00000=T Traj:=T positionsangstrom=T Step:=T 0=T Bead:=T pbc="F F F"
C      -44.17890000     -33.68580000     -67.69010000
C      -45.23300000     -33.34740000     -68.55390000
C      -45.00890000     -32.37460000     -69.50710000
C      -43.72880000     -31.77080000     -69.65210000
C      -42.67970000     -32.10770000     -68.77330000
C      -42.95140000     -33.09870000     -67.83440000
H      -44.35420000     -34.46660000     -66.94540000
H      -45.77190000     -31.99760000     -70.20240000
H      -41.78430000     -31.54140000     -68.87010000
H      -42.16000000     -33.32550000     -67.15320000
C      -43.47170000     -30.84810000     -70.84180000
H      -43.00860000     -29.92960000     -70.61630000
H      -44.38020000     -30.65300000     -71.34720000
C      -46.52670000     -34.08640000     -68.51310000
H      -46.88960000     -34.11550000     -67.51530000
H      -47.16520000     -33.45080000     -69.11130000
S      -42.31420000     -31.69960000     -72.04590000
S      -46.39080000     -35.85600000     -69.03810000
C      -42.77370000     -33.48860000     -71.92220000
H      -41.80130000     -33.95240000     -71.70540000
H      -43.40950000     -33.58900000     -70.98410000
C      -45.17880000     -35.84060000     -70.42980000
H      -44.43430000     -36.56460000     -70.16850000
H      -44.78290000     -34.90250000     -70.33740000
C      -45.78090000     -36.17570000     -71.78540000
H      -44.96440000     -36.29380000     -72.48570000
H      -46.28690000     -37.10310000     -71.66230000
C      -43.47480000     -33.91300000     -73.24110000
H      -43.60000000     -34.97080000     -73.40670000
H      -42.70970000     -33.57350000     -73.94870000
C      -44.86180000     -33.24390000     -73.47190000
C      -45.07050000     -32.07410000     -74.06440000
C      -46.15660000     -33.74920000     -72.89520000
H      -44.32750000     -31.58230000     -74.67140000
C      -47.22840000     -32.91790000     -73.23160000
C      -46.62410000     -35.00510000     -72.33070000
C      -47.97670000     -34.98850000     -72.13690000
S      -46.73350000     -31.47790000     -74.07030000
S      -48.74770000     -33.58600000     -72.81650000
H      -48.53390000     -35.71860000     -71.51140000
