40
Properties=species:S:1:pos:R:3 #=T CELL(abcABC):=T 1.889726e+02=T 90.00000=T Traj:=T positionsangstrom=T Step:=T 0=T Bead:=T pbc="F F F"
C      -44.25570000     -33.56700000     -67.57240000
C      -45.25650000     -33.38220000     -68.52730000
C      -44.97690000     -32.50000000     -69.65160000
C      -43.77520000     -31.82600000     -69.68540000
C      -42.78780000     -32.06190000     -68.71790000
C      -43.02300000     -32.94910000     -67.62650000
H      -44.39290000     -34.22550000     -66.71300000
H      -45.60720000     -32.38480000     -70.57130000
H      -41.76320000     -31.67120000     -68.90180000
H      -42.19940000     -33.22070000     -67.05600000
C      -43.47230000     -30.92560000     -70.87740000
H      -43.08700000     -29.88520000     -70.53470000
H      -44.36560000     -30.74190000     -71.47240000
C      -46.59440000     -34.01830000     -68.52290000
H      -47.04140000     -34.24160000     -67.54050000
H      -47.39280000     -33.59980000     -69.10730000
S      -42.25980000     -31.67020000     -72.10380000
S      -46.50040000     -35.83060000     -69.09840000
C      -42.66400000     -33.47880000     -72.20500000
H      -41.70840000     -33.98400000     -72.23880000
H      -43.11060000     -33.65610000     -71.24610000
C      -45.07830000     -35.83270000     -70.25010000
H      -44.52130000     -36.82880000     -70.02940000
H      -44.40280000     -34.97330000     -70.21250000
C      -45.61150000     -36.10170000     -71.68720000
H      -44.80370000     -36.26180000     -72.42420000
H      -46.16580000     -37.10260000     -71.67560000
C      -43.50660000     -33.94070000     -73.42560000
H      -43.73610000     -35.04190000     -73.41410000
H      -43.04060000     -33.65700000     -74.39460000
C      -44.86210000     -33.19530000     -73.44550000
C      -45.04470000     -32.02400000     -74.01950000
C      -46.14280000     -33.86720000     -72.98740000
H      -44.21890000     -31.40820000     -74.42080000
C      -47.20930000     -32.96760000     -73.26640000
C      -46.51600000     -35.01560000     -72.22470000
C      -47.88020000     -35.07320000     -72.06770000
S      -46.78650000     -31.47710000     -74.06620000
S      -48.74260000     -33.60620000     -72.71910000
H      -48.48090000     -35.84530000     -71.51290000
