40
Properties=species:S:1:pos:R:3 #=T CELL(abcABC):=T 1.889726e+02=T 90.00000=T Traj:=T positionsangstrom=T Step:=T 0=T Bead:=T pbc="F F F"
C      -44.42480000     -33.42860000     -67.49030000
C      -45.35410000     -33.34520000     -68.51710000
C      -45.07290000     -32.52560000     -69.66940000
C      -43.82670000     -31.85900000     -69.73080000
C      -42.85450000     -32.04450000     -68.73600000
C      -43.19040000     -32.81220000     -67.61850000
H      -44.61050000     -34.00140000     -66.57720000
H      -45.74360000     -32.35420000     -70.45120000
H      -41.86770000     -31.53150000     -68.81350000
H      -42.49750000     -32.92840000     -66.83730000
C      -43.50370000     -31.09440000     -70.98720000
H      -43.22970000     -30.09680000     -70.67180000
H      -44.32550000     -30.96290000     -71.69870000
C      -46.68020000     -34.07340000     -68.54340000
H      -47.20430000     -34.01910000     -67.54910000
H      -47.33860000     -33.48850000     -69.18410000
S      -42.10550000     -31.59450000     -72.09850000
S      -46.58430000     -35.88420000     -69.06400000
C      -42.53090000     -33.40680000     -72.38510000
H      -41.66380000     -34.08740000     -72.40020000
H      -43.15140000     -33.67620000     -71.50200000
C      -45.13410000     -35.94040000     -70.24760000
H      -44.44120000     -36.64420000     -69.91040000
H      -44.64050000     -34.98860000     -70.14040000
C      -45.62530000     -36.16270000     -71.82000000
H      -44.74100000     -36.24630000     -72.39700000
H      -46.19750000     -37.04890000     -72.00600000
C      -43.39450000     -33.72500000     -73.61460000
H      -43.31330000     -34.74960000     -73.53510000
H      -42.90880000     -33.52960000     -74.57060000
C      -44.84770000     -33.17990000     -73.53750000
C      -45.17360000     -32.02720000     -74.14880000
C      -46.01910000     -33.83920000     -72.95300000
H      -44.46590000     -31.25840000     -74.39710000
C      -47.13750000     -32.95380000     -73.07680000
C      -46.43360000     -35.01300000     -72.30430000
C      -47.81750000     -35.11450000     -72.07590000
S      -46.82320000     -31.56670000     -74.04650000
S      -48.61820000     -33.64540000     -72.49320000
H      -48.39670000     -35.88600000     -71.61290000
