40
Properties=species:S:1:pos:R:3 #=T CELL(abcABC):=T 1.889726e+02=T 90.00000=T Traj:=T positionsangstrom=T Step:=T 0=T Bead:=T pbc="F F F"
C      -44.56710000     -33.32320000     -67.62010000
C      -45.43450000     -33.35460000     -68.76160000
C      -45.13010000     -32.62640000     -69.87870000
C      -43.84310000     -31.95360000     -69.94760000
C      -42.97720000     -31.94560000     -68.79210000
C      -43.34620000     -32.66530000     -67.67870000
H      -44.83320000     -33.88540000     -66.74310000
H      -45.74590000     -32.58000000     -70.75890000
H      -42.10630000     -31.32740000     -68.83380000
H      -42.80210000     -32.60970000     -66.70870000
C      -43.54180000     -31.11300000     -71.17380000
H      -43.21970000     -30.17580000     -70.84650000
H      -44.44560000     -30.85920000     -71.80070000
C      -46.71730000     -34.10660000     -68.64880000
H      -47.06840000     -34.10360000     -67.64400000
H      -47.40980000     -33.66100000     -69.40820000
S      -42.06870000     -31.78510000     -72.09750000
S      -46.43570000     -35.87430000     -69.07140000
C      -42.56200000     -33.54790000     -72.29470000
H      -41.60710000     -33.99290000     -72.55520000
H      -42.96720000     -34.10130000     -71.40500000
C      -45.05920000     -36.05240000     -70.26810000
H      -44.69630000     -37.07640000     -70.13500000
H      -44.17020000     -35.35520000     -70.16010000
C      -45.41700000     -35.93430000     -71.76430000
H      -44.44860000     -35.81030000     -72.34290000
H      -45.85290000     -36.87860000     -72.08270000
C      -43.41910000     -33.78070000     -73.50890000
H      -43.47060000     -34.86620000     -73.64960000
H      -42.95220000     -33.37180000     -74.45770000
C      -44.84630000     -33.13990000     -73.56730000
C      -45.09550000     -31.95830000     -74.16410000
C      -46.03660000     -33.77170000     -72.93050000
H      -44.36090000     -31.32110000     -74.64490000
C      -47.19770000     -32.98190000     -73.11430000
C      -46.34520000     -34.86320000     -72.03880000
C      -47.70400000     -34.99030000     -71.71220000
S      -46.88660000     -31.49060000     -73.96190000
S      -48.67140000     -33.70020000     -72.38820000
H      -48.16050000     -35.64860000     -71.03640000
