40
Properties=species:S:1:pos:R:3 #=T CELL(abcABC):=T 1.889726e+02=T 90.00000=T Traj:=T positionsangstrom=T Step:=T 0=T Bead:=T pbc="F F F"
C      -44.52720000     -33.26070000     -67.50520000
C      -45.39690000     -33.22000000     -68.58650000
C      -45.10710000     -32.50200000     -69.79340000
C      -43.92060000     -31.80740000     -69.92040000
C      -43.10780000     -31.77550000     -68.80820000
C      -43.40090000     -32.43920000     -67.57600000
H      -44.74470000     -33.97270000     -66.68090000
H      -45.83250000     -32.67330000     -70.59010000
H      -42.16000000     -31.24670000     -68.86570000
H      -42.68630000     -32.45080000     -66.78810000
C      -43.46110000     -31.18810000     -71.24060000
H      -43.14080000     -30.15470000     -71.17720000
H      -44.29850000     -31.23970000     -71.87620000
C      -46.61090000     -34.10210000     -68.60680000
H      -47.18700000     -34.00810000     -67.63020000
H      -47.31260000     -33.76520000     -69.35160000
S      -42.10280000     -32.14350000     -72.09160000
S      -45.97250000     -35.84110000     -68.82940000
C      -42.80250000     -33.78440000     -72.49470000
H      -41.92020000     -34.37400000     -72.79600000
H      -43.40470000     -34.18940000     -71.66480000
C      -44.89340000     -36.01210000     -70.31800000
H      -44.43250000     -36.99780000     -70.20130000
H      -44.08050000     -35.36680000     -70.20250000
C      -45.53820000     -36.03630000     -71.78130000
H      -44.72540000     -36.05400000     -72.42930000
H      -46.04880000     -36.97110000     -71.78310000
C      -43.62690000     -33.93270000     -73.84640000
H      -43.64190000     -35.00890000     -74.02170000
H      -43.13250000     -33.51910000     -74.67170000
C      -45.03010000     -33.28120000     -73.78490000
C      -45.26650000     -32.05290000     -74.33190000
C      -46.13000000     -33.75430000     -72.95850000
H      -44.52280000     -31.46480000     -74.86020000
C      -47.17880000     -32.88180000     -73.05360000
C      -46.44840000     -34.95490000     -72.15290000
C      -47.80470000     -34.92480000     -71.78580000
S      -46.94770000     -31.41560000     -74.00510000
S      -48.61940000     -33.47680000     -72.29010000
H      -48.34220000     -35.68270000     -71.15150000
