40
Properties=species:S:1:pos:R:3 #=T CELL(abcABC):=T 1.889726e+02=T 90.00000=T Traj:=T positionsangstrom=T Step:=T 0=T Bead:=T pbc="F F F"
C      -44.53470000     -32.91050000     -67.44600000
C      -45.29270000     -33.19960000     -68.59600000
C      -44.94390000     -32.57220000     -69.79220000
C      -43.79200000     -31.76850000     -69.95040000
C      -42.94970000     -31.67870000     -68.83610000
C      -43.25790000     -32.30020000     -67.59670000
H      -44.91090000     -33.33540000     -66.47010000
H      -45.57150000     -32.63780000     -70.69700000
H      -42.04250000     -31.01130000     -68.86780000
H      -42.71780000     -32.04340000     -66.75840000
C      -43.50840000     -31.13280000     -71.29600000
H      -42.98780000     -30.17690000     -71.15280000
H      -44.36540000     -30.89580000     -72.03760000
C      -46.41610000     -34.19370000     -68.55950000
H      -46.86280000     -34.27290000     -67.58350000
H      -47.07680000     -33.87630000     -69.35020000
S      -42.14580000     -32.09400000     -72.16950000
S      -46.00190000     -35.97820000     -68.97190000
C      -42.77500000     -33.85920000     -72.41550000
H      -41.93970000     -34.51770000     -72.43710000
H      -43.31910000     -34.08800000     -71.45980000
C      -44.94030000     -35.76510000     -70.46100000
H      -43.99470000     -36.38060000     -70.37760000
H      -44.61280000     -34.69180000     -70.41050000
C      -45.70590000     -36.14540000     -71.78680000
H      -45.08870000     -36.35200000     -72.68070000
H      -46.25290000     -37.13900000     -71.64270000
C      -43.68670000     -34.00590000     -73.64130000
H      -43.64190000     -35.12290000     -73.82630000
H      -43.04510000     -33.65280000     -74.55570000
C      -45.01560000     -33.36170000     -73.53770000
C      -45.24570000     -32.17450000     -74.14980000
C      -46.23400000     -33.88330000     -72.95170000
H      -44.52770000     -31.49430000     -74.66420000
C      -47.26390000     -32.93440000     -73.08330000
C      -46.60850000     -35.00840000     -72.15250000
C      -47.89630000     -34.83690000     -71.59550000
S      -46.90740000     -31.48750000     -74.05090000
S      -48.66320000     -33.43940000     -72.30610000
H      -48.44800000     -35.70270000     -71.09840000
