40
Properties=species:S:1:pos:R:3 #=T CELL(abcABC):=T 1.889726e+02=T 90.00000=T Traj:=T positionsangstrom=T Step:=T 0=T Bead:=T pbc="F F F"
C      -44.15010000     -33.10180000     -67.63690000
C      -44.94030000     -33.35680000     -68.79260000
C      -44.74000000     -32.57780000     -69.98360000
C      -43.72560000     -31.61090000     -69.99070000
C      -42.78500000     -31.59350000     -68.91590000
C      -43.07300000     -32.17390000     -67.72030000
H      -44.31340000     -33.58020000     -66.72960000
H      -45.42400000     -32.67340000     -70.79750000
H      -42.02670000     -30.79960000     -68.95590000
H      -42.42750000     -31.98570000     -66.82490000
C      -43.53090000     -30.88410000     -71.26140000
H      -43.22070000     -29.77770000     -71.09070000
H      -44.47000000     -30.87850000     -71.76930000
C      -46.26650000     -34.20370000     -68.68410000
H      -46.64260000     -33.95210000     -67.66390000
H      -46.97880000     -33.79840000     -69.39060000
S      -42.33260000     -31.75470000     -72.36510000
S      -46.16500000     -35.99980000     -68.77790000
C      -42.71080000     -33.58970000     -72.27330000
H      -41.67880000     -33.96990000     -72.37270000
H      -43.08860000     -33.78770000     -71.31460000
C      -45.15960000     -36.17900000     -70.31830000
H      -44.46160000     -37.07300000     -70.15310000
H      -44.38860000     -35.37830000     -70.46950000
C      -45.99190000     -36.34670000     -71.59290000
H      -45.39570000     -36.70020000     -72.42090000
H      -46.82170000     -36.98150000     -71.44630000
C      -43.63150000     -34.02050000     -73.37640000
H      -43.63220000     -35.17660000     -73.33430000
H      -43.15650000     -33.76870000     -74.39770000
C      -45.02860000     -33.40610000     -73.38100000
C      -45.20640000     -32.26530000     -74.09330000
C      -46.23180000     -33.88770000     -72.78090000
H      -44.45210000     -31.72260000     -74.58660000
C      -47.28140000     -32.97310000     -73.10380000
C      -46.63440000     -35.04510000     -72.05150000
C      -47.99550000     -34.93280000     -71.73770000
S      -46.85180000     -31.53850000     -73.95050000
S      -48.74750000     -33.54210000     -72.50130000
H      -48.50530000     -35.63510000     -71.11320000
