40
Properties=species:S:1:pos:R:3 #=T CELL(abcABC):=T 1.889726e+02=T 90.00000=T Traj:=T positionsangstrom=T Step:=T 0=T Bead:=T pbc="F F F"
C      -44.11050000     -33.30280000     -67.79220000
C      -45.09860000     -33.23400000     -68.83880000
C      -44.97770000     -32.29350000     -69.87820000
C      -43.71160000     -31.62530000     -69.99340000
C      -42.80210000     -31.59020000     -68.92540000
C      -43.03720000     -32.45310000     -67.84860000
H      -44.31320000     -33.88310000     -66.93740000
H      -45.76920000     -32.22510000     -70.66130000
H      -41.86010000     -31.05560000     -68.88490000
H      -42.40250000     -32.38950000     -66.96570000
C      -43.44860000     -30.87540000     -71.23660000
H      -42.87220000     -29.86840000     -71.14120000
H      -44.43130000     -30.63090000     -71.66080000
C      -46.35850000     -34.04300000     -68.68400000
H      -46.78970000     -33.89660000     -67.65250000
H      -46.98660000     -33.79070000     -69.51560000
S      -42.35620000     -31.71860000     -72.58450000
S      -45.93440000     -35.85270000     -68.81610000
C      -42.61870000     -33.52330000     -72.22930000
H      -41.70560000     -34.13380000     -72.37810000
H      -42.91220000     -33.70430000     -71.18440000
C      -45.03760000     -36.02290000     -70.42940000
H      -44.46180000     -36.89790000     -70.17760000
H      -44.39060000     -35.19130000     -70.57600000
C      -45.85170000     -36.23570000     -71.74590000
H      -45.13940000     -36.49590000     -72.56400000
H      -46.48060000     -37.18050000     -71.53710000
C      -43.64980000     -34.14900000     -73.14780000
H      -43.60780000     -35.24420000     -72.97160000
H      -43.17020000     -34.22800000     -74.14170000
C      -45.06270000     -33.49820000     -73.22810000
C      -45.21170000     -32.30070000     -73.88740000
C      -46.34570000     -33.95120000     -72.73490000
H      -44.38560000     -31.83970000     -74.35960000
C      -47.34750000     -33.01580000     -73.00150000
C      -46.74870000     -35.12150000     -72.08890000
C      -48.11600000     -35.04080000     -71.81320000
S      -46.79370000     -31.63850000     -73.90830000
S      -48.86180000     -33.55120000     -72.35690000
H      -48.81970000     -35.81440000     -71.53490000
