40
Properties=species:S:1:pos:R:3 #=T CELL(abcABC):=T 1.889726e+02=T 90.00000=T Traj:=T positionsangstrom=T Step:=T 0=T Bead:=T pbc="F F F"
C      -44.18800000     -33.18790000     -67.81740000
C      -45.14190000     -33.10180000     -68.83340000
C      -44.93690000     -32.27110000     -69.94170000
C      -43.73000000     -31.57700000     -69.98850000
C      -42.63960000     -31.82040000     -69.10550000
C      -42.91030000     -32.64270000     -67.99170000
H      -44.30290000     -33.88990000     -66.94050000
H      -45.79200000     -32.24930000     -70.62100000
H      -41.63140000     -31.43330000     -69.16610000
H      -42.09590000     -32.87560000     -67.31990000
C      -43.46080000     -30.70540000     -71.22780000
H      -42.79530000     -29.95050000     -71.07600000
H      -44.41730000     -30.29200000     -71.53050000
C      -46.31530000     -34.03170000     -68.80420000
H      -46.94200000     -33.98720000     -67.95960000
H      -47.16610000     -33.80530000     -69.51560000
S      -42.41090000     -31.65190000     -72.44500000
S      -45.76810000     -35.76330000     -68.81120000
C      -42.82070000     -33.43270000     -72.23340000
H      -41.88410000     -33.99540000     -72.12450000
H      -43.24490000     -33.46770000     -71.20640000
C      -44.90660000     -35.91490000     -70.49310000
H      -44.07850000     -36.66500000     -70.51500000
H      -44.46510000     -34.90890000     -70.68590000
C      -45.88790000     -36.29080000     -71.61220000
H      -45.38660000     -36.77270000     -72.40400000
H      -46.52420000     -37.12280000     -71.29970000
C      -43.71370000     -34.13860000     -73.29710000
H      -43.75780000     -35.15700000     -73.06610000
H      -43.25060000     -33.91680000     -74.24650000
C      -45.10290000     -33.51630000     -73.34730000
C      -45.21740000     -32.31820000     -74.00970000
C      -46.33790000     -34.00590000     -72.73070000
H      -44.38810000     -31.85870000     -74.53660000
C      -47.34640000     -33.11980000     -72.94630000
C      -46.77300000     -35.19230000     -72.07650000
C      -48.10920000     -35.09820000     -71.70550000
S      -46.88690000     -31.71130000     -73.85800000
S      -48.86650000     -33.60860000     -72.28460000
H      -48.77220000     -35.87800000     -71.28240000
