40
Properties=species:S:1:pos:R:3 #=T CELL(abcABC):=T 1.889726e+02=T 90.00000=T Traj:=T positionsangstrom=T Step:=T 0=T Bead:=T pbc="F F F"
C      -45.01750000     -36.21350000     -68.63620000
C      -44.95340000     -34.86650000     -68.30740000
C      -46.08350000     -34.06050000     -68.45230000
C      -47.22270000     -34.54370000     -69.08750000
C      -47.18220000     -35.84680000     -69.50860000
C      -46.12650000     -36.69890000     -69.26930000
H      -44.09590000     -36.86200000     -68.56740000
H      -46.07500000     -33.04690000     -68.09710000
H      -48.01030000     -36.36290000     -70.01940000
H      -46.24100000     -37.74750000     -69.50750000
C      -48.43360000     -33.68280000     -69.27300000
H      -48.63250000     -33.07920000     -68.37630000
H      -49.37030000     -34.25800000     -69.35450000
C      -43.70410000     -34.31890000     -67.71080000
H      -43.95280000     -33.36980000     -67.17670000
H      -43.36620000     -35.04050000     -66.96380000
S      -48.39220000     -32.57090000     -70.73740000
S      -42.28230000     -33.91510000     -68.81490000
C      -47.10900000     -31.19510000     -70.36800000
H      -47.61000000     -30.24730000     -70.78890000
H      -47.18450000     -31.02650000     -69.26990000
C      -42.96370000     -34.20860000     -70.54010000
H      -43.97620000     -34.58140000     -70.52460000
H      -42.31210000     -34.91220000     -71.04500000
C      -42.81000000     -32.92950000     -71.33640000
H      -43.33730000     -32.18340000     -70.75130000
H      -41.77800000     -32.55130000     -71.35600000
C      -45.77460000     -31.48530000     -70.90380000
H      -45.43640000     -32.42040000     -70.43000000
H      -45.01780000     -30.64510000     -70.64410000
C      -45.77610000     -31.61930000     -72.44260000
C      -46.78750000     -31.35880000     -73.30390000
C      -44.70960000     -32.38990000     -73.16500000
H      -47.67450000     -30.86530000     -72.96150000
C      -45.01660000     -32.58740000     -74.49860000
C      -43.47680000     -33.02570000     -72.66870000
C      -42.81900000     -33.60520000     -73.80620000
S      -46.57100000     -31.90330000     -74.94640000
S      -43.80690000     -33.65050000     -75.22890000
H      -41.85550000     -34.08560000     -73.77090000
