40
Properties=species:S:1:pos:R:3 #=T CELL(abcABC):=T 1.889726e+02=T 90.00000=T Traj:=T positionsangstrom=T Step:=T 0=T Bead:=T pbc="F F F"
C      -43.94480000     -32.98640000     -67.46940000
C      -44.92790000     -33.16640000     -68.51870000
C      -44.74780000     -32.49370000     -69.73580000
C      -43.59030000     -31.79440000     -70.02800000
C      -42.61100000     -31.64130000     -68.99770000
C      -42.82860000     -32.17300000     -67.71890000
H      -43.93740000     -33.58290000     -66.57520000
H      -45.53760000     -32.51340000     -70.53250000
H      -41.78230000     -31.00580000     -69.28570000
H      -42.02130000     -32.06150000     -67.04850000
C      -43.50030000     -31.18230000     -71.41690000
H      -43.23870000     -30.07760000     -71.21810000
H      -44.41030000     -31.21290000     -72.01150000
C      -46.14680000     -33.96880000     -68.31290000
H      -46.42350000     -33.97980000     -67.23880000
H      -47.07630000     -33.55860000     -68.66810000
S      -42.17680000     -31.92040000     -72.48630000
S      -46.11950000     -35.76650000     -68.88290000
C      -42.86640000     -33.60480000     -72.83280000
H      -42.02310000     -34.24660000     -72.97220000
H      -43.40310000     -34.06090000     -71.94040000
C      -44.80540000     -35.86800000     -70.14320000
H      -44.25770000     -36.77540000     -69.84190000
H      -44.14370000     -34.99460000     -69.92710000
C      -45.38080000     -36.01970000     -71.59110000
H      -44.59230000     -36.23610000     -72.29160000
H      -45.87820000     -37.03390000     -71.64510000
C      -43.86010000     -33.73920000     -73.91590000
H      -43.95650000     -34.88810000     -73.97790000
H      -43.51630000     -33.37150000     -74.89480000
C      -45.25370000     -33.15170000     -73.65280000
C      -45.72500000     -32.00610000     -74.27430000
C      -46.26160000     -33.82630000     -72.87110000
H      -45.23590000     -31.26380000     -74.84820000
C      -47.49100000     -33.13770000     -72.89780000
C      -46.39250000     -34.99650000     -72.05410000
C      -47.66500000     -35.20890000     -71.65450000
S      -47.41010000     -31.64600000     -73.87010000
S      -48.84990000     -33.96270000     -72.16540000
H      -47.95520000     -36.22460000     -71.29490000
