40
Properties=species:S:1:pos:R:3 #=T CELL(abcABC):=T 1.889726e+02=T 90.00000=T Traj:=T positionsangstrom=T Step:=T 0=T Bead:=T pbc="F F F"
C      -44.21580000     -33.14290000     -67.82690000
C      -45.11350000     -33.17860000     -68.89120000
C      -44.78590000     -32.33610000     -69.99560000
C      -43.71340000     -31.50500000     -70.06270000
C      -42.89330000     -31.37950000     -68.90250000
C      -43.18240000     -32.17500000     -67.81140000
H      -44.34190000     -33.71590000     -66.91000000
H      -45.40660000     -32.36870000     -70.91010000
H      -42.00500000     -30.75660000     -69.02410000
H      -42.46160000     -32.21060000     -66.98670000
C      -43.32960000     -30.80570000     -71.39750000
H      -42.82430000     -29.86610000     -71.19110000
H      -44.29490000     -30.62820000     -71.90120000
C      -46.28940000     -34.16770000     -68.82240000
H      -46.63810000     -34.03890000     -67.82490000
H      -47.01520000     -34.03810000     -69.56720000
S      -42.18790000     -31.81030000     -72.45990000
S      -45.65090000     -35.92280000     -68.79610000
C      -42.88130000     -33.55010000     -72.39590000
H      -42.09870000     -34.29130000     -72.46070000
H      -43.43680000     -33.67320000     -71.41790000
C      -44.82990000     -36.09480000     -70.38550000
H      -44.20220000     -36.97140000     -70.38550000
H      -44.20730000     -35.20410000     -70.55460000
C      -45.67700000     -36.24760000     -71.70120000
H      -45.04870000     -36.51410000     -72.52690000
H      -46.31260000     -37.15000000     -71.61800000
C      -43.79890000     -33.92480000     -73.61770000
H      -43.80050000     -34.99350000     -73.64580000
H      -43.34770000     -33.60550000     -74.52600000
C      -45.20720000     -33.42120000     -73.54660000
C      -45.44130000     -32.20510000     -74.18240000
C      -46.36220000     -33.95780000     -72.81040000
H      -44.63210000     -31.49880000     -74.57740000
C      -47.52890000     -33.17850000     -72.94750000
C      -46.60080000     -35.12350000     -71.95100000
C      -47.89040000     -35.10700000     -71.50700000
S      -47.17240000     -31.69970000     -73.92890000
S      -48.85890000     -33.65250000     -71.94770000
H      -48.38680000     -35.87060000     -70.86390000
