40
Properties=species:S:1:pos:R:3 #=T CELL(abcABC):=T 1.889726e+02=T 90.00000=T Traj:=T positionsangstrom=T Step:=T 0=T Bead:=T pbc="F F F"
C      -44.95960000     -36.07830000     -68.69680000
C      -44.91730000     -34.72680000     -68.36710000
C      -46.06560000     -33.94320000     -68.45730000
C      -47.26020000     -34.46110000     -68.99440000
C      -47.25970000     -35.84510000     -69.21920000
C      -46.14100000     -36.67210000     -69.19770000
H      -44.10770000     -36.72070000     -68.62740000
H      -45.91750000     -32.83960000     -68.22570000
H      -48.16430000     -36.30860000     -69.56330000
H      -46.21230000     -37.70340000     -69.49210000
C      -48.49510000     -33.55450000     -69.18110000
H      -48.62320000     -32.78430000     -68.37120000
H      -49.37020000     -34.15640000     -69.31350000
C      -43.66050000     -34.18890000     -67.73360000
H      -43.92560000     -33.23730000     -67.29970000
H      -43.36570000     -34.86560000     -66.90260000
S      -48.49290000     -32.58820000     -70.77550000
S      -42.20220000     -34.03160000     -68.82790000
C      -47.19870000     -31.27080000     -70.32630000
H      -47.50790000     -30.35180000     -70.77740000
H      -47.19660000     -31.23200000     -69.27410000
C      -42.86200000     -34.10470000     -70.49310000
H      -43.98540000     -34.32290000     -70.42350000
H      -42.34560000     -35.02520000     -70.80620000
C      -42.63000000     -32.93650000     -71.51400000
H      -43.04430000     -32.00870000     -71.15630000
H      -41.53430000     -32.81960000     -71.69260000
C      -45.83800000     -31.58090000     -70.84860000
H      -45.40220000     -32.44420000     -70.36430000
H      -45.23240000     -30.76670000     -70.50160000
C      -45.82960000     -31.84930000     -72.35750000
C      -46.77130000     -31.39720000     -73.22560000
C      -44.74150000     -32.57420000     -73.07410000
H      -47.56400000     -30.67060000     -72.99440000
C      -45.07100000     -32.67800000     -74.39480000
C      -43.41060000     -33.11560000     -72.80910000
C      -42.81380000     -33.68080000     -73.96020000
S      -46.54740000     -31.94390000     -74.91530000
S      -43.84580000     -33.49950000     -75.36330000
H      -41.77140000     -34.03580000     -74.00540000
