40
Properties=species:S:1:pos:R:3 #=T CELL(abcABC):=T 1.889726e+02=T 90.00000=T Traj:=T positionsangstrom=T Step:=T 0=T Bead:=T pbc="F F F"
C      -46.16950000     -30.09990000     -73.04130000
C      -45.70160000     -30.23660000     -71.69210000
C      -44.37940000     -30.51240000     -71.55020000
C      -43.51350000     -30.52050000     -72.65380000
C      -43.97610000     -30.25370000     -73.94430000
C      -45.33480000     -30.17550000     -74.14310000
H      -47.31740000     -29.94420000     -73.17290000
H      -44.03080000     -30.76270000     -70.56000000
H      -43.26490000     -30.30680000     -74.76870000
H      -45.75110000     -30.15870000     -75.09790000
C      -42.01610000     -30.67010000     -72.31200000
H      -41.86580000     -29.74280000     -71.66990000
H      -41.40620000     -30.55800000     -73.25620000
C      -46.57520000     -30.01980000     -70.50970000
H      -45.88060000     -30.15630000     -69.67590000
H      -46.91120000     -28.94220000     -70.52820000
S      -41.71700000     -32.18140000     -71.22380000
S      -48.07780000     -31.07070000     -70.34560000
C      -43.08820000     -33.39670000     -71.66640000
H      -43.77210000     -32.90780000     -72.44250000
H      -42.65500000     -34.20830000     -72.20740000
C      -47.43430000     -32.68610000     -70.21290000
H      -48.18980000     -33.36670000     -69.79420000
H      -46.62920000     -32.85570000     -69.39590000
C      -46.90890000     -33.31070000     -71.58410000
H      -47.67270000     -33.05050000     -72.33320000
H      -45.88150000     -32.83890000     -71.81230000
C      -43.89180000     -33.75860000     -70.40110000
H      -44.75690000     -33.14440000     -70.29400000
H      -43.34670000     -33.60060000     -69.52930000
C      -44.42030000     -35.17090000     -70.43360000
C      -43.68070000     -36.26090000     -70.03030000
C      -45.74720000     -35.53290000     -70.89760000
H      -42.73110000     -36.37390000     -69.57550000
C      -45.98310000     -36.90650000     -70.81010000
C      -46.82470000     -34.75610000     -71.42670000
C      -47.96910000     -35.57310000     -71.52180000
S      -44.62970000     -37.78990000     -70.20290000
S      -47.66480000     -37.33030000     -71.23500000
H      -48.89530000     -35.21700000     -71.95490000
