40
Properties=species:S:1:pos:R:3 #=T CELL(abcABC):=T 1.889726e+02=T 90.00000=T Traj:=T positionsangstrom=T Step:=T 0=T Bead:=T pbc="F F F"
C      -45.54750000     -29.28180000     -72.89650000
C      -45.22260000     -29.93470000     -71.70960000
C      -44.08230000     -30.75490000     -71.64490000
C      -43.21320000     -30.97600000     -72.70740000
C      -43.63990000     -30.41840000     -73.97070000
C      -44.71690000     -29.57600000     -74.04350000
H      -46.37090000     -28.57040000     -73.00830000
H      -43.93710000     -31.20730000     -70.66630000
H      -43.05380000     -30.71330000     -74.85660000
H      -44.85920000     -29.07650000     -74.94670000
C      -41.93190000     -31.76870000     -72.64000000
H      -41.06600000     -31.05440000     -72.74180000
H      -41.78080000     -32.52340000     -73.41900000
C      -46.07760000     -29.86980000     -70.45470000
H      -45.53790000     -30.28050000     -69.57950000
H      -46.25430000     -28.77380000     -70.16480000
S      -41.72410000     -32.56350000     -70.94590000
S      -47.76740000     -30.55570000     -70.68790000
C      -42.80590000     -34.07990000     -71.05170000
H      -43.33610000     -33.93530000     -72.01250000
H      -42.18320000     -34.96130000     -71.21580000
C      -47.58580000     -32.37290000     -70.46900000
H      -48.63850000     -32.69020000     -70.34570000
H      -47.24310000     -32.40930000     -69.40920000
C      -46.70020000     -33.04310000     -71.46680000
H      -46.83130000     -32.70190000     -72.48220000
H      -45.63160000     -32.65950000     -71.36570000
C      -43.80820000     -34.32880000     -69.93120000
H      -44.40550000     -33.46200000     -69.80090000
H      -43.31930000     -34.49970000     -69.01680000
C      -44.68400000     -35.50800000     -70.00070000
C      -44.41960000     -36.77790000     -69.44010000
C      -45.91210000     -35.47750000     -70.82240000
H      -43.56230000     -37.04790000     -68.90840000
C      -46.43710000     -36.79080000     -70.96460000
C      -46.85030000     -34.50570000     -71.43740000
C      -47.83080000     -35.16290000     -72.11340000
S      -45.66610000     -37.93390000     -69.89480000
S      -47.87590000     -36.92770000     -71.92100000
H      -48.51350000     -34.64780000     -72.76580000
