40
Properties=species:S:1:pos:R:3 #=T CELL(abcABC):=T 1.889726e+02=T 90.00000=T Traj:=T positionsangstrom=T Step:=T 0=T Bead:=T pbc="F F F"
C      -45.48650000     -29.39840000     -73.13060000
C      -45.19040000     -29.79370000     -71.78680000
C      -44.05500000     -30.57380000     -71.54930000
C      -43.20520000     -30.94960000     -72.59030000
C      -43.48190000     -30.56200000     -73.92580000
C      -44.58920000     -29.65950000     -74.12500000
H      -46.44780000     -28.89850000     -73.26240000
H      -43.88200000     -30.97230000     -70.57060000
H      -42.80890000     -30.64250000     -74.82540000
H      -44.99370000     -29.43770000     -75.08910000
C      -41.91180000     -31.89530000     -72.47450000
H      -41.03160000     -31.32720000     -72.74270000
H      -41.96500000     -32.63740000     -73.29020000
C      -46.13520000     -29.53000000     -70.67260000
H      -45.66810000     -29.78620000     -69.73250000
H      -46.64510000     -28.57200000     -70.68800000
S      -41.78990000     -32.78190000     -70.92420000
S      -47.66630000     -30.57280000     -70.74700000
C      -43.14380000     -34.13790000     -71.09090000
H      -43.87180000     -33.85740000     -71.83390000
H      -42.68930000     -35.08220000     -71.36470000
C      -47.08830000     -32.23190000     -70.39950000
H      -47.94040000     -32.84470000     -70.08990000
H      -46.29860000     -32.32680000     -69.67490000
C      -46.58210000     -33.02150000     -71.66700000
H      -47.19290000     -32.65290000     -72.48980000
H      -45.53690000     -32.83520000     -71.81820000
C      -43.94100000     -34.26390000     -69.77890000
H      -44.47440000     -33.28590000     -69.50850000
H      -43.15300000     -34.38440000     -68.97130000
C      -44.82580000     -35.46580000     -69.96730000
C      -44.54020000     -36.67620000     -69.26180000
C      -46.00670000     -35.50290000     -70.76470000
H      -43.63100000     -37.03610000     -68.80400000
C      -46.57500000     -36.77930000     -70.84530000
C      -46.83220000     -34.54220000     -71.50550000
C      -47.89000000     -35.15540000     -72.18230000
S      -45.60900000     -37.89230000     -69.90820000
S      -47.95000000     -36.91340000     -71.86340000
H      -48.69940000     -34.74350000     -72.72200000
