40
Properties=species:S:1:pos:R:3 #=T CELL(abcABC):=T 1.889726e+02=T 90.00000=T Traj:=T positionsangstrom=T Step:=T 0=T Bead:=T pbc="F F F"
C      -44.85080000     -34.25420000     -67.29990000
C      -45.87480000     -34.78550000     -68.09270000
C      -45.54780000     -35.74610000     -69.05600000
C      -44.16900000     -36.13920000     -69.26320000
C      -43.15330000     -35.55300000     -68.52950000
C      -43.51950000     -34.66620000     -67.51980000
H      -45.08010000     -33.45050000     -66.53870000
H      -46.31930000     -36.17910000     -69.69670000
H      -42.12620000     -35.94850000     -68.78410000
H      -42.79790000     -34.32540000     -66.76740000
C      -43.85670000     -37.04330000     -70.49290000
H      -43.59430000     -38.08960000     -70.09960000
H      -42.86770000     -36.79970000     -70.90280000
C      -47.29170000     -34.21340000     -67.94890000
H      -47.95630000     -34.92390000     -68.41940000
H      -47.63960000     -34.04220000     -66.84510000
S      -45.09760000     -37.08160000     -71.91830000
S      -47.33660000     -32.46560000     -68.52710000
C      -44.46770000     -35.63580000     -72.94990000
H      -43.46530000     -35.92070000     -73.18810000
H      -45.01540000     -35.76620000     -73.82390000
C      -46.51630000     -32.36290000     -70.13240000
H      -45.99140000     -33.28970000     -70.31850000
H      -45.82030000     -31.55770000     -70.11200000
C      -47.44890000     -32.31650000     -71.32910000
H      -47.82960000     -33.35890000     -71.64200000
H      -48.37090000     -31.86750000     -71.00220000
C      -44.74370000     -34.32270000     -72.21550000
H      -44.11030000     -34.32020000     -71.37230000
H      -45.76620000     -34.24440000     -71.76010000
C      -44.50700000     -33.11290000     -73.06540000
C      -43.27690000     -32.79120000     -73.69280000
C      -45.38700000     -31.95870000     -73.04770000
H      -42.47270000     -33.48330000     -73.92930000
C      -44.96800000     -30.96610000     -73.90570000
C      -46.74800000     -31.57780000     -72.49660000
C      -47.27810000     -30.43700000     -73.05140000
S      -43.38130000     -31.23550000     -74.60350000
S      -46.13620000     -29.59200000     -74.10780000
H      -48.22510000     -30.01840000     -72.89670000
