40
Properties=species:S:1:pos:R:3 #=T CELL(abcABC):=T 1.889726e+02=T 90.00000=T Traj:=T positionsangstrom=T Step:=T 0=T Bead:=T pbc="F F F"
C      -44.95080000     -34.34130000     -67.35530000
C      -45.95460000     -34.62410000     -68.21290000
C      -45.63210000     -35.40450000     -69.34370000
C      -44.33740000     -35.98610000     -69.49890000
C      -43.34010000     -35.61960000     -68.53650000
C      -43.64910000     -34.82810000     -67.50290000
H      -45.15830000     -33.68510000     -66.54760000
H      -46.32630000     -35.68720000     -70.08140000
H      -42.38980000     -36.10840000     -68.57860000
H      -43.01710000     -34.48110000     -66.63680000
C      -43.95040000     -37.11160000     -70.46960000
H      -44.07160000     -38.01840000     -69.92880000
H      -42.93520000     -37.02480000     -70.83270000
C      -47.38440000     -34.20620000     -68.04180000
H      -48.08470000     -34.81580000     -68.72110000
H      -47.87530000     -34.14380000     -67.10320000
S      -44.94070000     -37.25290000     -72.03720000
S      -47.55020000     -32.34040000     -68.36190000
C      -44.38430000     -35.76270000     -73.03970000
H      -43.37340000     -35.93180000     -73.33260000
H      -44.94340000     -35.75050000     -73.99450000
C      -46.39670000     -32.08640000     -69.81830000
H      -45.50820000     -32.59590000     -69.59210000
H      -46.17530000     -30.98580000     -69.81350000
C      -47.17830000     -32.31270000     -71.06870000
H      -47.29910000     -33.34310000     -71.16920000
H      -48.23140000     -31.94180000     -70.99310000
C      -44.47240000     -34.46470000     -72.33260000
H      -43.76550000     -34.41470000     -71.48010000
H      -45.40400000     -34.48650000     -71.85940000
C      -44.39060000     -33.10680000     -73.18120000
C      -43.36220000     -32.92130000     -74.07010000
C      -45.31380000     -31.94680000     -73.00830000
H      -42.52410000     -33.47700000     -74.39720000
C      -45.00680000     -30.93700000     -73.94260000
C      -46.49870000     -31.57940000     -72.23160000
C      -47.09060000     -30.40940000     -72.66390000
S      -43.56460000     -31.34390000     -74.87120000
S      -46.02480000     -29.55000000     -73.82470000
H      -47.98940000     -29.90000000     -72.27380000
