40
Properties=species:S:1:pos:R:3 #=T CELL(abcABC):=T 1.889726e+02=T 90.00000=T Traj:=T positionsangstrom=T Step:=T 0=T Bead:=T pbc="F F F"
C      -45.38560000     -34.51680000     -67.42000000
C      -46.22420000     -34.87230000     -68.42680000
C      -45.86390000     -35.74210000     -69.49860000
C      -44.55810000     -36.25440000     -69.58030000
C      -43.65200000     -35.92530000     -68.50130000
C      -44.03680000     -35.04540000     -67.51330000
H      -45.78840000     -33.83870000     -66.68100000
H      -46.60470000     -35.98730000     -70.28990000
H      -42.75590000     -36.37220000     -68.53160000
H      -43.27520000     -34.74260000     -66.77960000
C      -44.05620000     -37.27620000     -70.56020000
H      -44.57040000     -38.28080000     -70.37910000
H      -42.93910000     -37.41890000     -70.37690000
C      -47.60640000     -34.22870000     -68.50280000
H      -48.03400000     -34.53200000     -69.51730000
H      -48.35490000     -34.68660000     -67.79250000
S      -44.46870000     -37.15720000     -72.34670000
S      -47.56850000     -32.41710000     -68.04340000
C      -43.94010000     -35.51350000     -72.88940000
H      -43.02970000     -35.19930000     -72.31440000
H      -43.58380000     -35.56320000     -73.87330000
C      -46.44470000     -31.77270000     -69.33740000
H      -45.39160000     -32.08940000     -69.17470000
H      -46.47170000     -30.65780000     -69.31170000
C      -46.86910000     -32.20930000     -70.78520000
H      -46.70650000     -33.29710000     -70.82970000
H      -47.93500000     -32.08200000     -71.06760000
C      -45.03880000     -34.47420000     -72.77560000
H      -45.15830000     -34.11890000     -71.75090000
H      -45.99690000     -34.98710000     -72.95700000
C      -44.82370000     -33.16480000     -73.54230000
C      -44.08610000     -33.05710000     -74.70400000
C      -45.34070000     -31.90730000     -73.04330000
H      -43.52410000     -33.82380000     -75.26760000
C      -44.98800000     -30.87270000     -73.92320000
C      -46.03060000     -31.40500000     -71.85170000
C      -46.15740000     -30.02030000     -71.88920000
S      -43.88070000     -31.37630000     -75.20070000
S      -45.42880000     -29.29930000     -73.31980000
H      -46.73220000     -29.39970000     -71.22410000
