40
Properties=species:S:1:pos:R:3 #=T CELL(abcABC):=T 1.889726e+02=T 90.00000=T Traj:=T positionsangstrom=T Step:=T 0=T Bead:=T pbc="F F F"
C      -44.93210000     -34.44150000     -67.56230000
C      -45.94550000     -34.86130000     -68.48400000
C      -45.57070000     -35.78250000     -69.47020000
C      -44.25300000     -36.25670000     -69.60000000
C      -43.22760000     -35.85340000     -68.74070000
C      -43.62080000     -34.93870000     -67.69930000
H      -45.20760000     -33.70950000     -66.79850000
H      -46.19990000     -36.00280000     -70.27990000
H      -42.15460000     -36.09560000     -68.95630000
H      -42.85150000     -34.72950000     -66.93110000
C      -43.79890000     -37.24520000     -70.72390000
H      -43.69210000     -38.26330000     -70.23380000
H      -42.74040000     -36.98240000     -71.10250000
C      -47.47060000     -34.38940000     -68.49010000
H      -48.01950000     -34.67490000     -69.41390000
H      -47.98690000     -34.82980000     -67.59780000
S      -44.89960000     -37.29630000     -72.23080000
S      -47.82560000     -32.63530000     -68.19160000
C      -44.32320000     -35.63370000     -73.05520000
H      -43.31420000     -35.31890000     -72.74400000
H      -44.32890000     -35.91300000     -74.14960000
C      -46.64520000     -31.79590000     -69.36520000
H      -45.59710000     -32.23120000     -69.10930000
H      -46.63790000     -30.69480000     -69.19090000
C      -46.88550000     -32.11550000     -70.86290000
H      -46.81530000     -33.17790000     -71.09830000
H      -47.90680000     -31.82430000     -71.07640000
C      -45.38070000     -34.43960000     -72.95360000
H      -45.59270000     -34.28300000     -71.90690000
H      -46.30460000     -34.72230000     -73.45630000
C      -44.96310000     -33.12990000     -73.52560000
C      -44.34310000     -32.96800000     -74.74360000
C      -45.32090000     -31.83200000     -72.98300000
H      -44.10170000     -33.66670000     -75.42570000
C      -44.85450000     -30.76980000     -73.71470000
C      -46.06140000     -31.33140000     -71.81290000
C      -46.07560000     -29.93770000     -71.70390000
S      -44.05240000     -31.29140000     -75.11240000
S      -45.13570000     -29.24920000     -73.02630000
H      -46.41840000     -29.27180000     -70.86790000
