40
Properties=species:S:1:pos:R:3 #=T CELL(abcABC):=T 1.889726e+02=T 90.00000=T Traj:=T positionsangstrom=T Step:=T 0=T Bead:=T pbc="F F F"
C      -45.80280000     -37.48700000     -71.04910000
C      -46.49740000     -36.48300000     -70.41040000
C      -47.29910000     -35.61530000     -71.23000000
C      -47.23920000     -35.61580000     -72.58300000
C      -46.48960000     -36.67100000     -73.19060000
C      -45.80980000     -37.57670000     -72.42720000
H      -44.99640000     -38.06990000     -70.51350000
H      -47.91610000     -34.87100000     -70.70020000
H      -46.39270000     -36.54560000     -74.22910000
H      -45.33930000     -38.29960000     -73.07640000
C      -48.04840000     -34.79050000     -73.50500000
H      -48.82270000     -35.43710000     -74.01870000
H      -47.42840000     -34.36300000     -74.29950000
C      -46.43460000     -36.29920000     -68.92570000
H      -47.05470000     -35.56710000     -68.51070000
H      -46.60060000     -37.19040000     -68.34530000
S      -49.00190000     -33.40940000     -72.74700000
S      -44.73250000     -35.74590000     -68.47640000
C      -47.68810000     -32.03090000     -72.61860000
H      -47.45970000     -31.67660000     -73.64430000
H      -48.10920000     -31.19260000     -72.10920000
C      -44.56970000     -33.99940000     -69.08210000
H      -43.98920000     -33.46570000     -68.38470000
H      -45.52860000     -33.40570000     -69.07340000
C      -43.93510000     -34.01390000     -70.48350000
H      -43.21630000     -34.83350000     -70.46720000
H      -44.62850000     -34.40550000     -71.23490000
C      -46.34100000     -32.45470000     -71.89890000
H      -45.82990000     -33.28730000     -72.47140000
H      -46.63810000     -33.01700000     -70.99410000
C      -45.39080000     -31.35190000     -71.69570000
C      -45.55530000     -29.98120000     -71.92630000
C      -43.99680000     -31.54780000     -71.32470000
H      -46.45480000     -29.43280000     -72.20380000
C      -43.18150000     -30.41710000     -71.48990000
C      -43.35050000     -32.71120000     -70.91270000
C      -41.95810000     -32.48830000     -70.80360000
S      -44.10350000     -29.04990000     -71.91990000
S      -41.49450000     -30.78200000     -71.18740000
H      -41.08490000     -33.14190000     -70.70440000
