40
Properties=species:S:1:pos:R:3 #=T CELL(abcABC):=T 1.889726e+02=T 90.00000=T Traj:=T positionsangstrom=T Step:=T 0=T Bead:=T pbc="F F F"
C      -44.34560000     -34.31280000     -67.65770000
C      -45.47250000     -34.90990000     -68.25240000
C      -45.20850000     -35.77280000     -69.33760000
C      -44.00960000     -35.82000000     -70.02340000
C      -42.94960000     -35.02330000     -69.63200000
C      -43.14500000     -34.35630000     -68.40470000
H      -44.54330000     -33.71220000     -66.78290000
H      -46.04510000     -36.25350000     -69.86900000
H      -42.04860000     -35.09220000     -70.21970000
H      -42.28230000     -33.76280000     -68.05620000
C      -43.87780000     -36.60860000     -71.32820000
H      -43.47040000     -37.67100000     -71.03910000
H      -43.06880000     -36.16090000     -71.89220000
C      -46.87100000     -34.71610000     -67.70670000
H      -47.61560000     -35.48910000     -68.11020000
H      -46.98940000     -34.79930000     -66.60930000
S      -45.48580000     -37.01990000     -72.18930000
S      -47.61670000     -33.01180000     -68.18290000
C      -45.60260000     -35.71210000     -73.48170000
H      -44.57430000     -35.63210000     -74.03500000
H      -46.37970000     -36.06560000     -74.18430000
C      -46.54800000     -32.68240000     -69.68330000
H      -46.19090000     -33.65180000     -70.10670000
H      -45.60220000     -32.10230000     -69.42720000
C      -47.25890000     -32.00830000     -70.85000000
H      -47.89540000     -32.74980000     -71.32740000
H      -47.93840000     -31.23860000     -70.44860000
C      -45.87550000     -34.34610000     -72.77290000
H      -45.34020000     -34.37080000     -71.85140000
H      -46.94490000     -34.10130000     -72.52870000
C      -45.34840000     -33.15050000     -73.43120000
C      -44.57310000     -33.14190000     -74.56870000
C      -45.52950000     -31.82690000     -72.86530000
H      -44.22650000     -33.82600000     -75.29740000
C      -44.73230000     -30.91000000     -73.48090000
C      -46.24330000     -31.31020000     -71.72080000
C      -45.96160000     -29.96450000     -71.51960000
S      -43.93900000     -31.54340000     -74.85910000
S      -44.86450000     -29.34110000     -72.80380000
H      -46.37060000     -29.29020000     -70.68330000
