40
Properties=species:S:1:pos:R:3 #=T CELL(abcABC):=T 1.889726e+02=T 90.00000=T Traj:=T positionsangstrom=T Step:=T 0=T Bead:=T pbc="F F F"
C      -42.76590000     -30.81450000     -73.43120000
C      -44.16940000     -30.96400000     -73.58480000
C      -44.64980000     -32.23780000     -73.76880000
C      -43.83330000     -33.31380000     -74.02440000
C      -42.45790000     -33.12860000     -74.00400000
C      -41.90220000     -31.87740000     -73.66580000
H      -42.42740000     -29.82660000     -73.23230000
H      -45.68880000     -32.38920000     -73.77710000
H      -41.73350000     -33.97260000     -74.18290000
H      -40.87380000     -31.81970000     -73.60490000
C      -44.45550000     -34.68360000     -74.21270000
H      -44.34920000     -34.93950000     -75.25110000
H      -45.46350000     -34.61710000     -73.87750000
C      -45.12570000     -29.82340000     -73.26870000
H      -44.70320000     -28.90080000     -73.54000000
H      -46.19870000     -29.92970000     -73.65210000
S      -43.67160000     -36.06830000     -73.26240000
S      -45.05070000     -29.49520000     -71.40540000
C      -43.24530000     -35.46610000     -71.53120000
H      -43.19140000     -36.45670000     -71.02290000
H      -42.22550000     -35.07290000     -71.55170000
C      -46.07690000     -30.77760000     -70.49390000
H      -46.62910000     -31.45160000     -71.13760000
H      -46.95110000     -30.27200000     -69.90230000
C      -45.31900000     -31.74010000     -69.47740000
H      -44.50900000     -32.21420000     -70.04030000
H      -44.85400000     -31.13420000     -68.61730000
C      -44.15320000     -34.53590000     -70.90150000
H      -44.30810000     -33.69150000     -71.60140000
H      -43.68580000     -34.05370000     -70.03750000
C      -45.51230000     -35.03280000     -70.40920000
C      -46.07980000     -36.22150000     -70.69020000
C      -46.30400000     -34.19900000     -69.53510000
H      -45.71420000     -37.02080000     -71.29750000
C      -47.43480000     -34.89150000     -69.08920000
C      -46.26900000     -32.87590000     -69.01600000
C      -47.38130000     -32.64990000     -68.28190000
S      -47.59120000     -36.46340000     -69.82520000
S      -48.50980000     -33.97020000     -68.11560000
H      -47.68010000     -31.67660000     -67.81580000
