40
Properties=species:S:1:pos:R:3 #=T CELL(abcABC):=T 1.889726e+02=T 90.00000=T Traj:=T positionsangstrom=T Step:=T 0=T Bead:=T pbc="F F F"
C      -42.91030000     -30.72940000     -73.60200000
C      -44.32400000     -30.84430000     -73.39390000
C      -44.93970000     -32.07260000     -73.65510000
C      -44.22190000     -33.23600000     -74.01770000
C      -42.85280000     -33.07650000     -74.20530000
C      -42.17820000     -31.81790000     -74.02490000
H      -42.43660000     -29.73610000     -73.55730000
H      -45.99980000     -32.19820000     -73.54320000
H      -42.34390000     -33.98450000     -74.53080000
H      -41.08820000     -31.80330000     -74.08350000
C      -44.94910000     -34.52840000     -74.06520000
H      -45.28690000     -34.77920000     -75.11400000
H      -45.77580000     -34.55640000     -73.33210000
C      -45.17010000     -29.68360000     -72.88670000
H      -44.67210000     -28.73360000     -73.09880000
H      -46.19860000     -29.67930000     -73.29480000
S      -43.91720000     -35.94580000     -73.43060000
S      -45.25260000     -29.40610000     -71.03000000
C      -43.09300000     -35.48500000     -71.87460000
H      -42.92310000     -36.34940000     -71.18540000
H      -42.07670000     -35.15000000     -72.09860000
C      -46.20130000     -30.90110000     -70.45090000
H      -46.44840000     -31.56490000     -71.25880000
H      -47.12970000     -30.66890000     -69.99030000
C      -45.34390000     -31.70260000     -69.49180000
H      -44.37740000     -32.07300000     -69.84200000
H      -45.20480000     -31.15480000     -68.61510000
C      -43.81830000     -34.50570000     -70.88570000
H      -43.98330000     -33.56090000     -71.36460000
H      -43.17030000     -34.19350000     -70.00200000
C      -45.15830000     -35.02170000     -70.37540000
C      -45.59390000     -36.34280000     -70.63130000
C      -46.05800000     -34.28610000     -69.51330000
H      -45.15970000     -36.99680000     -71.36710000
C      -47.13700000     -35.00960000     -69.11990000
C      -46.18340000     -32.92090000     -69.08830000
C      -47.38190000     -32.72140000     -68.40500000
S      -47.17980000     -36.59310000     -69.85510000
S      -48.30450000     -34.19620000     -68.17470000
H      -47.76520000     -31.82530000     -68.03630000
