40
Properties=species:S:1:pos:R:3 #=T CELL(abcABC):=T 1.889726e+02=T 90.00000=T Traj:=T positionsangstrom=T Step:=T 0=T Bead:=T pbc="F F F"
C      -43.91620000     -30.27760000     -73.95620000
C      -45.17790000     -30.62050000     -73.40560000
C      -45.64730000     -31.94300000     -73.66650000
C      -44.86700000     -32.85830000     -74.36210000
C      -43.61780000     -32.54610000     -74.83650000
C      -43.10720000     -31.26210000     -74.61560000
H      -43.48400000     -29.32470000     -73.64480000
H      -46.53930000     -32.32480000     -73.19470000
H      -43.08630000     -33.21850000     -75.54900000
H      -42.07580000     -31.00060000     -74.92910000
C      -45.35270000     -34.16790000     -74.75390000
H      -45.01750000     -34.39640000     -75.71860000
H      -46.39510000     -34.25290000     -74.85190000
C      -45.93870000     -29.56120000     -72.67750000
H      -45.64760000     -28.56360000     -73.08290000
H      -47.06080000     -29.60220000     -72.84570000
S      -44.77720000     -35.51360000     -73.59090000
S      -45.56560000     -29.50940000     -70.87270000
C      -43.40190000     -34.85400000     -72.64270000
H      -42.65700000     -35.51480000     -72.33710000
H      -42.82990000     -34.24740000     -73.30290000
C      -45.97190000     -31.22730000     -70.27130000
H      -45.81140000     -31.82470000     -71.14460000
H      -47.06680000     -31.36370000     -70.18570000
C      -45.19800000     -31.81390000     -69.12370000
H      -44.16290000     -31.92500000     -69.45360000
H      -45.25510000     -31.15670000     -68.20640000
C      -43.82190000     -34.08820000     -71.39380000
H      -44.40860000     -33.23810000     -71.60220000
H      -42.82340000     -33.84320000     -70.90190000
C      -44.65670000     -34.95830000     -70.47990000
C      -44.69130000     -36.34230000     -70.55370000
C      -45.54630000     -34.41180000     -69.47820000
H      -44.05390000     -36.92810000     -71.22410000
C      -46.30060000     -35.42230000     -68.92310000
C      -45.87480000     -33.12810000     -68.77250000
C      -46.75850000     -33.29570000     -67.73340000
S      -45.92090000     -37.10340000     -69.46810000
S      -47.40520000     -34.92070000     -67.66610000
H      -47.23560000     -32.56510000     -67.18950000
