40
Properties=species:S:1:pos:R:3 #=T CELL(abcABC):=T 1.889726e+02=T 90.00000=T Traj:=T positionsangstrom=T Step:=T 0=T Bead:=T pbc="F F F"
C      -43.80190000     -30.29570000     -73.74150000
C      -45.13200000     -30.60810000     -73.45220000
C      -45.66370000     -31.83550000     -73.90220000
C      -44.87320000     -32.71740000     -74.65790000
C      -43.62740000     -32.30810000     -75.11990000
C      -43.12720000     -31.08280000     -74.72830000
H      -43.46760000     -29.28730000     -73.51780000
H      -46.74070000     -32.07200000     -73.68780000
H      -42.96310000     -33.03040000     -75.55820000
H      -42.06840000     -30.86900000     -74.99870000
C      -45.33240000     -34.14620000     -74.90260000
H      -44.99760000     -34.39060000     -75.95760000
H      -46.45480000     -34.22930000     -74.85190000
C      -46.06840000     -29.70780000     -72.62260000
H      -46.05660000     -28.68590000     -72.95550000
H      -47.07690000     -30.06760000     -72.74840000
S      -44.72830000     -35.43660000     -73.72580000
S      -45.65400000     -29.74990000     -70.80280000
C      -43.43210000     -34.58560000     -72.65890000
H      -42.69400000     -35.46860000     -72.41960000
H      -42.90170000     -33.81630000     -73.30510000
C      -46.24070000     -31.41670000     -70.40070000
H      -46.07370000     -32.07240000     -71.26930000
H      -47.28330000     -31.39460000     -70.05280000
C      -45.35300000     -31.86140000     -69.19640000
H      -44.31740000     -31.97310000     -69.53900000
H      -45.32900000     -31.14780000     -68.41850000
C      -43.99040000     -33.94260000     -71.33820000
H      -44.57700000     -33.00880000     -71.53550000
H      -43.11080000     -33.63170000     -70.84150000
C      -44.70980000     -34.89700000     -70.40980000
C      -44.74180000     -36.28560000     -70.60450000
C      -45.52080000     -34.50700000     -69.27810000
H      -44.28290000     -36.80170000     -71.50930000
C      -46.11940000     -35.52670000     -68.64360000
C      -45.86410000     -33.19780000     -68.71540000
C      -46.78870000     -33.31290000     -67.65960000
S      -45.80430000     -37.08650000     -69.43360000
S      -47.21820000     -35.00110000     -67.46500000
H      -47.16860000     -32.60190000     -67.02450000
