40
Properties=species:S:1:pos:R:3 #=T CELL(abcABC):=T 1.889726e+02=T 90.00000=T Traj:=T positionsangstrom=T Step:=T 0=T Bead:=T pbc="F F F"
C      -43.97350000     -30.14000000     -73.87910000
C      -45.31130000     -30.54810000     -73.58010000
C      -45.70750000     -31.83300000     -73.97550000
C      -44.81020000     -32.66670000     -74.71300000
C      -43.52540000     -32.19740000     -75.05910000
C      -43.10790000     -30.97300000     -74.55630000
H      -43.59260000     -29.27940000     -73.33750000
H      -46.67530000     -32.24950000     -73.64110000
H      -42.95920000     -32.68530000     -75.76290000
H      -42.12940000     -30.55880000     -74.88190000
C      -45.28490000     -34.04920000     -75.17050000
H      -44.71860000     -34.34610000     -76.06200000
H      -46.38870000     -34.10500000     -75.25810000
C      -46.21330000     -29.73610000     -72.72540000
H      -46.19160000     -28.67680000     -73.01250000
H      -47.22110000     -30.19600000     -72.69870000
S      -44.74290000     -35.34050000     -73.83380000
S      -45.67730000     -29.72740000     -70.95380000
C      -43.49010000     -34.57750000     -72.70470000
H      -42.73570000     -35.26270000     -72.54080000
H      -43.14260000     -33.68340000     -73.20410000
C      -46.39220000     -31.31850000     -70.29250000
H      -46.68770000     -32.15180000     -70.97250000
H      -47.33840000     -30.97590000     -69.90220000
C      -45.49680000     -31.90100000     -69.10730000
H      -44.43230000     -31.96440000     -69.40230000
H      -45.54730000     -31.14330000     -68.33340000
C      -44.06830000     -33.94620000     -71.37850000
H      -44.66190000     -33.05800000     -71.76460000
H      -43.34490000     -33.40860000     -70.73450000
C      -44.78870000     -34.85820000     -70.44900000
C      -44.80780000     -36.25310000     -70.60490000
C      -45.57250000     -34.52340000     -69.27730000
H      -44.17690000     -36.75350000     -71.40150000
C      -46.06120000     -35.64630000     -68.62290000
C      -45.90120000     -33.25990000     -68.64040000
C      -46.65240000     -33.49150000     -67.50390000
S      -45.69590000     -37.15550000     -69.41560000
S      -46.95220000     -35.21200000     -67.15830000
H      -47.05620000     -32.68070000     -66.89270000
