40
Properties=species:S:1:pos:R:3 #=T CELL(abcABC):=T 1.889726e+02=T 90.00000=T Traj:=T positionsangstrom=T Step:=T 0=T Bead:=T pbc="F F F"
C      -44.12020000     -30.00440000     -73.94360000
C      -45.41340000     -30.54480000     -73.60280000
C      -45.68550000     -31.88590000     -73.95340000
C      -44.73360000     -32.61740000     -74.75080000
C      -43.46650000     -32.06320000     -75.04520000
C      -43.16890000     -30.78210000     -74.55450000
H      -43.84610000     -28.97170000     -73.69790000
H      -46.70000000     -32.19940000     -73.78650000
H      -42.68640000     -32.69070000     -75.50030000
H      -42.18820000     -30.33340000     -74.63730000
C      -45.12020000     -34.02890000     -75.15140000
H      -44.68720000     -34.46660000     -76.04500000
H      -46.17000000     -34.09010000     -75.39800000
C      -46.32450000     -29.78280000     -72.72510000
H      -46.31220000     -28.71270000     -73.01800000
H      -47.35310000     -30.03250000     -72.81620000
S      -44.77430000     -35.38550000     -73.80710000
S      -45.74140000     -29.73400000     -70.89780000
C      -43.49270000     -34.56680000     -72.62100000
H      -42.79830000     -35.40460000     -72.32020000
H      -42.83000000     -33.90630000     -73.21120000
C      -46.44950000     -31.34880000     -70.30700000
H      -46.36150000     -32.07610000     -71.10750000
H      -47.50840000     -31.18600000     -70.13980000
C      -45.64980000     -31.83310000     -69.07700000
H      -44.61960000     -31.79610000     -69.40820000
H      -45.78880000     -31.18730000     -68.18090000
C      -44.36390000     -33.89790000     -71.57070000
H      -45.12220000     -33.36260000     -72.03290000
H      -43.67380000     -33.25090000     -71.02110000
C      -45.01010000     -34.83990000     -70.58000000
C      -44.85440000     -36.27090000     -70.73010000
C      -45.72300000     -34.53040000     -69.40360000
H      -44.26890000     -36.92630000     -71.40780000
C      -46.04260000     -35.72840000     -68.64750000
C      -45.92700000     -33.30020000     -68.66770000
C      -46.49180000     -33.55910000     -67.43930000
S      -45.54470000     -37.15770000     -69.35250000
S      -46.65890000     -35.27760000     -67.08590000
H      -46.79290000     -32.77190000     -66.69560000
