40
Properties=species:S:1:pos:R:3 #=T CELL(abcABC):=T 1.889726e+02=T 90.00000=T Traj:=T positionsangstrom=T Step:=T 0=T Bead:=T pbc="F F F"
C      -43.31910000     -33.88600000     -68.97640000
C      -44.44630000     -34.49360000     -68.35150000
C      -45.03570000     -35.57500000     -69.03250000
C      -44.43910000     -36.22390000     -70.10790000
C      -43.18890000     -35.75500000     -70.58090000
C      -42.68750000     -34.53630000     -70.03650000
H      -42.87330000     -33.02650000     -68.46240000
H      -45.95080000     -35.92520000     -68.64850000
H      -42.62540000     -36.15150000     -71.51240000
H      -41.68820000     -34.16460000     -70.31910000
C      -45.04400000     -37.49780000     -70.62610000
H      -45.51920000     -38.14810000     -69.87490000
H      -44.27440000     -38.06670000     -71.17930000
C      -45.24470000     -33.80070000     -67.32470000
H      -45.66550000     -34.43280000     -66.53120000
H      -44.54120000     -33.10340000     -66.81930000
S      -46.49710000     -37.09420000     -71.76290000
S      -46.71190000     -32.87040000     -67.95690000
C      -45.83230000     -35.65650000     -72.74650000
H      -44.74410000     -35.77230000     -72.72230000
H      -46.07490000     -35.84750000     -73.79300000
C      -45.86850000     -31.97440000     -69.37180000
H      -45.04310000     -32.51650000     -69.79700000
H      -45.48710000     -30.95810000     -69.03200000
C      -46.96560000     -31.71960000     -70.47650000
H      -47.50680000     -32.62450000     -70.61840000
H      -47.65710000     -31.04120000     -70.09990000
C      -46.24460000     -34.27170000     -72.32610000
H      -45.81720000     -34.10860000     -71.25090000
H      -47.30340000     -34.17360000     -72.33870000
C      -45.64510000     -33.19030000     -73.17490000
C      -44.93780000     -33.45360000     -74.34760000
C      -45.72280000     -31.82830000     -72.78500000
H      -44.50600000     -34.43450000     -74.78490000
C      -45.06270000     -31.00860000     -73.69780000
C      -46.20960000     -31.14340000     -71.63790000
C      -46.01590000     -29.77530000     -71.70330000
S      -44.35240000     -31.91890000     -75.08830000
S      -45.07950000     -29.40470000     -73.12160000
H      -46.43800000     -28.95930000     -71.04790000
