40
Properties=species:S:1:pos:R:3 #=T CELL(abcABC):=T 1.889726e+02=T 90.00000=T Traj:=T positionsangstrom=T Step:=T 0=T Bead:=T pbc="F F F"
C      -45.33650000     -35.98960000     -68.11380000
C      -44.89380000     -34.65880000     -68.16630000
C      -45.89380000     -33.67520000     -68.35430000
C      -47.27630000     -34.00100000     -68.39450000
C      -47.67640000     -35.31990000     -68.28530000
C      -46.70800000     -36.33880000     -68.14310000
H      -44.53780000     -36.66950000     -68.01620000
H      -45.62140000     -32.60010000     -68.52850000
H      -48.69590000     -35.65500000     -68.41920000
H      -47.14410000     -37.28960000     -68.16550000
C      -48.40010000     -32.92500000     -68.56430000
H      -48.09570000     -31.99730000     -68.09690000
H      -49.37230000     -33.17430000     -68.24660000
C      -43.44020000     -34.24970000     -68.17640000
H      -43.41730000     -33.17350000     -68.24580000
H      -43.06750000     -34.58090000     -67.19860000
S      -48.38660000     -32.48170000     -70.31540000
S      -42.23770000     -35.03120000     -69.42630000
C      -47.05170000     -31.14470000     -70.43620000
H      -47.31550000     -30.23450000     -71.00090000
H      -46.81640000     -30.71220000     -69.45770000
C      -42.76720000     -34.71920000     -71.13320000
H      -43.77840000     -35.04720000     -71.21070000
H      -42.14170000     -35.29500000     -71.80070000
C      -42.83140000     -33.21840000     -71.54400000
H      -43.30950000     -32.67540000     -70.77680000
H      -41.80280000     -32.87270000     -71.50250000
C      -45.78190000     -31.67350000     -71.12460000
H      -45.41840000     -32.54540000     -70.65070000
H      -44.99930000     -30.95300000     -70.92890000
C      -45.86040000     -31.93000000     -72.61720000
C      -46.89570000     -31.57450000     -73.45100000
C      -44.75090000     -32.53980000     -73.34960000
H      -47.79360000     -31.00270000     -73.15400000
C      -44.94080000     -32.52060000     -74.70800000
C      -43.42650000     -32.99920000     -72.93220000
C      -42.74950000     -33.58920000     -74.02000000
S      -46.58670000     -31.92270000     -75.13700000
S      -43.59990000     -33.27970000     -75.51350000
H      -41.75900000     -34.02070000     -74.08100000
