40
Properties=species:S:1:pos:R:3 #=T CELL(abcABC):=T 1.889726e+02=T 90.00000=T Traj:=T positionsangstrom=T Step:=T 0=T Bead:=T pbc="F F F"
C      -43.31320000     -33.87490000     -68.52070000
C      -44.59200000     -34.39470000     -68.29510000
C      -44.96010000     -35.56810000     -68.97240000
C      -44.02780000     -36.25590000     -69.73450000
C      -42.79620000     -35.70310000     -70.08860000
C      -42.48540000     -34.52680000     -69.43390000
H      -42.90160000     -32.91240000     -68.16430000
H      -45.90750000     -36.04910000     -68.63490000
H      -42.20200000     -36.18590000     -70.83360000
H      -41.55360000     -33.97140000     -69.71170000
C      -44.48120000     -37.49910000     -70.39470000
H      -44.84060000     -38.34770000     -69.82530000
H      -43.71190000     -37.76570000     -71.15630000
C      -45.51300000     -33.70360000     -67.30960000
H      -46.08460000     -34.45690000     -66.78210000
H      -45.00280000     -33.01020000     -66.67480000
S      -46.01170000     -37.13890000     -71.44190000
S      -46.83090000     -32.91400000     -68.24890000
C      -45.49160000     -35.83600000     -72.64940000
H      -44.40620000     -35.86960000     -72.72540000
H      -45.92840000     -36.02180000     -73.63470000
C      -46.18440000     -31.82780000     -69.55560000
H      -45.25070000     -32.17570000     -69.97440000
H      -46.02280000     -30.81400000     -69.09810000
C      -47.19050000     -31.67260000     -70.72970000
H      -47.71440000     -32.70850000     -70.93710000
H      -48.07210000     -31.06860000     -70.43030000
C      -45.81150000     -34.39620000     -72.14500000
H      -45.42490000     -34.31370000     -71.10480000
H      -46.89130000     -34.36150000     -71.98180000
C      -45.41950000     -33.25710000     -73.07500000
C      -44.50830000     -33.36670000     -74.07620000
C      -45.88720000     -31.88950000     -72.96630000
H      -44.10370000     -34.31190000     -74.53900000
C      -45.38090000     -31.05600000     -73.93150000
C      -46.55440000     -31.17620000     -71.94150000
C      -46.62660000     -29.81500000     -72.20040000
S      -44.29250000     -31.85400000     -75.03450000
S      -45.78220000     -29.37510000     -73.71550000
H      -47.08610000     -28.95810000     -71.65840000
