40
Properties=species:S:1:pos:R:3 #=T CELL(abcABC):=T 1.889726e+02=T 90.00000=T Traj:=T positionsangstrom=T Step:=T 0=T Bead:=T pbc="F F F"
C      -43.17620000     -33.84750000     -68.47900000
C      -44.49540000     -34.28080000     -68.26830000
C      -44.84920000     -35.54250000     -68.82320000
C      -43.94800000     -36.18820000     -69.75040000
C      -42.65680000     -35.65740000     -69.98850000
C      -42.24600000     -34.50680000     -69.31900000
H      -42.82850000     -32.93160000     -67.98020000
H      -45.94200000     -35.82350000     -68.88530000
H      -41.90480000     -36.14710000     -70.59420000
H      -41.29430000     -33.98000000     -69.52000000
C      -44.41660000     -37.42890000     -70.51420000
H      -44.60320000     -38.32270000     -69.84090000
H      -43.68910000     -37.78440000     -71.19610000
C      -45.54110000     -33.51410000     -67.35380000
H      -45.84480000     -34.06010000     -66.48140000
H      -44.94810000     -32.62100000     -66.89770000
S      -45.98300000     -37.14300000     -71.54700000
S      -47.09240000     -32.98330000     -68.16840000
C      -45.29540000     -35.74310000     -72.60210000
H      -44.22260000     -35.91650000     -72.66350000
H      -45.75780000     -35.84160000     -73.62120000
C      -46.31510000     -31.90220000     -69.48270000
H      -45.35910000     -32.28860000     -69.82420000
H      -46.08660000     -30.96140000     -68.99380000
C      -47.24240000     -31.65980000     -70.67310000
H      -47.72980000     -32.55470000     -70.91080000
H      -47.97690000     -30.89570000     -70.50160000
C      -45.73000000     -34.36440000     -72.04480000
H      -45.23630000     -34.07920000     -71.12990000
H      -46.79200000     -34.36610000     -71.84320000
C      -45.38490000     -33.25300000     -73.08090000
C      -44.64380000     -33.48210000     -74.23410000
C      -45.74090000     -31.86460000     -72.83490000
H      -44.13010000     -34.42090000     -74.43040000
C      -45.26280000     -31.11810000     -73.87740000
C      -46.55980000     -31.13720000     -71.91390000
C      -46.70840000     -29.81970000     -72.33910000
S      -44.42530000     -31.94800000     -75.14200000
S      -45.83970000     -29.43780000     -73.77220000
H      -47.34930000     -29.05020000     -71.80030000
