40
Properties=species:S:1:pos:R:3 #=T CELL(abcABC):=T 1.889726e+02=T 90.00000=T Traj:=T positionsangstrom=T Step:=T 0=T Bead:=T pbc="F F F"
C      -43.22830000     -33.72510000     -67.80850000
C      -44.50470000     -34.30190000     -67.97650000
C      -44.68660000     -35.38970000     -68.85850000
C      -43.66480000     -35.94670000     -69.59250000
C      -42.45370000     -35.26750000     -69.54380000
C      -42.21220000     -34.17040000     -68.65830000
H      -43.21320000     -32.85170000     -67.12110000
H      -45.71710000     -35.72340000     -69.02950000
H      -41.63460000     -35.54830000     -70.18920000
H      -41.16860000     -33.89790000     -68.51920000
C      -43.89600000     -37.17930000     -70.44080000
H      -44.25680000     -38.05930000     -69.89160000
H      -42.97860000     -37.52520000     -70.95800000
C      -45.63820000     -33.72330000     -67.21880000
H      -46.10860000     -34.40930000     -66.46300000
H      -45.20350000     -32.88870000     -66.69520000
S      -45.18480000     -37.09630000     -71.79250000
S      -47.12920000     -33.10300000     -68.28140000
C      -44.78800000     -35.69450000     -72.82110000
H      -43.69250000     -35.66640000     -73.04800000
H      -45.30110000     -35.83170000     -73.78960000
C      -46.42690000     -32.18810000     -69.73480000
H      -45.57050000     -32.65920000     -70.19470000
H      -46.03980000     -31.18220000     -69.39740000
C      -47.53080000     -32.11920000     -70.80770000
H      -47.98960000     -33.03200000     -71.12770000
H      -48.25800000     -31.40370000     -70.40700000
C      -45.16710000     -34.37780000     -72.19340000
H      -44.50810000     -34.19660000     -71.41330000
H      -46.13710000     -34.50020000     -71.60420000
C      -45.30750000     -33.22180000     -73.21640000
C      -44.57320000     -33.24030000     -74.39050000
C      -45.94920000     -31.99880000     -72.92760000
H      -44.04600000     -34.06030000     -74.78540000
C      -45.70730000     -31.09610000     -73.95890000
C      -46.97200000     -31.43340000     -71.98030000
C      -47.20910000     -30.14420000     -72.28680000
S      -44.71910000     -31.74050000     -75.22720000
S      -46.47790000     -29.57990000     -73.78560000
H      -47.98340000     -29.47130000     -71.80790000
