40
Properties=species:S:1:pos:R:3 #=T CELL(abcABC):=T 1.889726e+02=T 90.00000=T Traj:=T positionsangstrom=T Step:=T 0=T Bead:=T pbc="F F F"
C      -43.29430000     -33.52350000     -68.13080000
C      -44.50300000     -34.21890000     -68.12990000
C      -44.63750000     -35.36620000     -68.93500000
C      -43.49300000     -35.83130000     -69.65920000
C      -42.21890000     -35.23820000     -69.51370000
C      -42.14440000     -34.02380000     -68.79790000
H      -43.20170000     -32.71070000     -67.49280000
H      -45.60310000     -35.82860000     -69.01650000
H      -41.40050000     -35.76490000     -69.98080000
H      -41.31020000     -33.30700000     -68.78900000
C      -43.67260000     -37.17320000     -70.34660000
H      -44.09520000     -37.87340000     -69.62710000
H      -42.71270000     -37.40390000     -70.75160000
C      -45.67950000     -33.77820000     -67.28040000
H      -45.95370000     -34.61440000     -66.62160000
H      -45.34200000     -32.91750000     -66.61240000
S      -44.95410000     -37.12050000     -71.65540000
S      -47.18620000     -33.24700000     -68.24280000
C      -44.42520000     -35.66400000     -72.76060000
H      -43.37300000     -35.49070000     -72.56510000
H      -44.54570000     -36.04640000     -73.78250000
C      -46.43880000     -32.21150000     -69.51170000
H      -45.42480000     -32.62840000     -69.69140000
H      -46.22990000     -31.21100000     -69.09020000
C      -47.40650000     -32.22510000     -70.68170000
H      -47.82640000     -33.23330000     -70.95340000
H      -48.37180000     -31.73910000     -70.34800000
C      -45.40870000     -34.50850000     -72.51210000
H      -45.27220000     -34.16480000     -71.45120000
H      -46.37600000     -34.94230000     -72.58060000
C      -45.38370000     -33.27710000     -73.36320000
C      -44.57180000     -33.17420000     -74.50420000
C      -46.08140000     -32.01450000     -72.95230000
H      -43.88020000     -33.89060000     -74.91640000
C      -45.82250000     -31.03030000     -73.90050000
C      -46.92520000     -31.51900000     -71.87680000
C      -47.38280000     -30.24310000     -72.14960000
S      -44.77760000     -31.60660000     -75.25490000
S      -46.78010000     -29.60380000     -73.73440000
H      -48.01260000     -29.64050000     -71.47090000
