40
Properties=species:S:1:pos:R:3 #=T CELL(abcABC):=T 1.889726e+02=T 90.00000=T Traj:=T positionsangstrom=T Step:=T 0=T Bead:=T pbc="F F F"
C      -43.33350000     -33.25510000     -68.37640000
C      -44.46670000     -34.12460000     -68.24380000
C      -44.40620000     -35.39280000     -68.87510000
C      -43.32600000     -35.66800000     -69.71900000
C      -42.20100000     -34.81940000     -69.81640000
C      -42.20720000     -33.61790000     -69.12100000
H      -43.20840000     -32.28610000     -67.80280000
H      -45.29220000     -36.04750000     -68.88440000
H      -41.22040000     -35.13100000     -70.16740000
H      -41.27300000     -33.09830000     -69.07340000
C      -43.20310000     -36.95430000     -70.50130000
H      -43.41270000     -37.72090000     -69.70550000
H      -42.26430000     -37.05280000     -71.13020000
C      -45.58450000     -33.66660000     -67.35160000
H      -45.68080000     -34.38640000     -66.63080000
H      -45.34110000     -32.71350000     -66.79480000
S      -44.56110000     -37.23930000     -71.72630000
S      -47.13720000     -33.57620000     -68.28790000
C      -44.57900000     -35.67090000     -72.70590000
H      -43.48730000     -35.36660000     -72.92450000
H      -45.04950000     -35.96520000     -73.66570000
C      -46.65920000     -32.49190000     -69.74510000
H      -45.74480000     -32.85200000     -70.16450000
H      -46.38680000     -31.52680000     -69.27140000
C      -47.69330000     -32.48280000     -70.83790000
H      -47.94160000     -33.56490000     -71.08930000
H      -48.56970000     -32.09710000     -70.41490000
C      -45.28720000     -34.41830000     -72.15800000
H      -44.80660000     -34.28040000     -71.15300000
H      -46.29100000     -34.72790000     -71.92130000
C      -45.25810000     -33.13960000     -73.03100000
C      -44.52700000     -33.08730000     -74.20460000
C      -46.17180000     -31.99540000     -72.83810000
H      -43.93530000     -33.90480000     -74.65730000
C      -45.98020000     -31.03350000     -73.82100000
C      -47.23080000     -31.62430000     -71.95280000
C      -47.79930000     -30.40910000     -72.19120000
S      -44.80120000     -31.56130000     -75.06710000
S      -47.05450000     -29.66460000     -73.58450000
H      -48.55310000     -29.86540000     -71.57560000
