40
Properties=species:S:1:pos:R:3 #=T CELL(abcABC):=T 1.889726e+02=T 90.00000=T Traj:=T positionsangstrom=T Step:=T 0=T Bead:=T pbc="F F F"
C      -43.70130000     -32.12160000     -68.80170000
C      -44.30930000     -33.30320000     -68.36460000
C      -43.96480000     -34.54670000     -68.87900000
C      -42.93530000     -34.67020000     -69.81480000
C      -42.31290000     -33.48730000     -70.25410000
C      -42.63470000     -32.22870000     -69.71670000
H      -44.04930000     -31.17080000     -68.38670000
H      -44.27550000     -35.50700000     -68.46050000
H      -41.59450000     -33.60920000     -71.11010000
H      -42.02960000     -31.36580000     -70.03350000
C      -42.47670000     -36.00310000     -70.26130000
H      -42.18190000     -36.59860000     -69.40900000
H      -41.67720000     -35.97060000     -71.01790000
C      -45.41130000     -33.33250000     -67.33760000
H      -45.26530000     -34.03640000     -66.49900000
H      -45.57220000     -32.32960000     -66.77450000
S      -43.75850000     -37.02560000     -71.36040000
S      -46.95100000     -33.89540000     -68.10440000
C      -44.17590000     -35.74510000     -72.54470000
H      -43.23340000     -35.19220000     -72.77190000
H      -44.41590000     -36.22110000     -73.46710000
C      -47.11010000     -32.57130000     -69.48250000
H      -46.07020000     -32.42760000     -69.73080000
H      -47.61210000     -31.64420000     -69.18540000
C      -47.81630000     -33.18330000     -70.72410000
H      -47.51880000     -34.18120000     -70.95190000
H      -48.88720000     -33.17500000     -70.55210000
C      -45.28560000     -34.80320000     -72.15470000
H      -45.08630000     -34.46300000     -71.21000000
H      -46.21090000     -35.42740000     -72.14980000
C      -45.39250000     -33.64710000     -73.09670000
C      -44.69240000     -33.51700000     -74.24410000
C      -46.37410000     -32.58590000     -72.87180000
H      -43.99950000     -34.27220000     -74.62290000
C      -46.31190000     -31.60040000     -73.90730000
C      -47.40610000     -32.26810000     -71.87530000
C      -48.12700000     -31.16980000     -72.21640000
S      -45.07530000     -31.95580000     -75.05380000
S      -47.56630000     -30.44240000     -73.72060000
H      -48.98510000     -30.89330000     -71.66760000
