40
Properties=species:S:1:pos:R:3 #=T CELL(abcABC):=T 1.889726e+02=T 90.00000=T Traj:=T positionsangstrom=T Step:=T 0=T Bead:=T pbc="F F F"
C      -43.56950000     -32.31330000     -68.59350000
C      -44.23430000     -33.47900000     -68.27780000
C      -43.79580000     -34.66350000     -68.83200000
C      -42.69650000     -34.68140000     -69.69150000
C      -42.14990000     -33.46160000     -70.18580000
C      -42.56210000     -32.28500000     -69.57600000
H      -43.84400000     -31.36160000     -68.08760000
H      -44.38570000     -35.56660000     -68.71700000
H      -41.31350000     -33.62870000     -70.83860000
H      -42.04870000     -31.35070000     -69.74930000
C      -42.32740000     -35.99540000     -70.37830000
H      -41.94250000     -36.73190000     -69.63200000
H      -41.49090000     -35.84270000     -71.05070000
C      -45.37180000     -33.38130000     -67.25120000
H      -45.24220000     -34.13640000     -66.46090000
H      -45.44400000     -32.39410000     -66.89150000
S      -43.67450000     -36.92410000     -71.20460000
S      -46.97110000     -33.86430000     -68.07200000
C      -44.13570000     -35.70420000     -72.65100000
H      -43.19870000     -35.16250000     -72.84970000
H      -44.39670000     -36.28810000     -73.54770000
C      -47.05700000     -32.59940000     -69.46970000
H      -45.99800000     -32.38950000     -69.70640000
H      -47.40580000     -31.59120000     -69.24890000
C      -47.86450000     -33.08030000     -70.76810000
H      -47.74460000     -34.18020000     -71.02300000
H      -48.90330000     -32.87030000     -70.50710000
C      -45.21360000     -34.75270000     -72.22400000
H      -45.01080000     -34.36170000     -71.13170000
H      -46.15190000     -35.27800000     -72.21990000
C      -45.41010000     -33.56710000     -73.08410000
C      -44.70870000     -33.42090000     -74.22850000
C      -46.43370000     -32.54830000     -72.88370000
H      -43.89800000     -33.97950000     -74.69450000
C      -46.52530000     -31.73790000     -74.01810000
C      -47.50320000     -32.24890000     -71.96250000
C      -48.27150000     -31.17160000     -72.33390000
S      -45.27590000     -31.99280000     -75.16140000
S      -47.69200000     -30.44100000     -73.84660000
H      -49.13980000     -30.79910000     -71.84000000
