40
Properties=species:S:1:pos:R:3 #=T CELL(abcABC):=T 1.889726e+02=T 90.00000=T Traj:=T positionsangstrom=T Step:=T 0=T Bead:=T pbc="F F F"
C      -41.47420000     -33.18180000     -72.08860000
C      -42.40580000     -33.12510000     -73.12780000
C      -42.94860000     -31.87940000     -73.40280000
C      -42.79950000     -30.81140000     -72.50370000
C      -41.98300000     -30.94020000     -71.38960000
C      -41.30740000     -32.15450000     -71.22880000
H      -40.99710000     -34.15360000     -72.06730000
H      -43.58850000     -31.78530000     -74.29830000
H      -41.87960000     -30.21280000     -70.66380000
H      -40.60560000     -32.31330000     -70.42110000
C      -43.70970000     -29.64810000     -72.78540000
H      -43.48720000     -29.21080000     -73.83490000
H      -43.49760000     -28.78490000     -72.10060000
C      -42.70400000     -34.28440000     -74.09190000
H      -42.51120000     -33.96950000     -75.18270000
H      -42.04100000     -35.15190000     -73.84320000
S      -45.48750000     -30.14010000     -72.65800000
S      -44.47710000     -34.68690000     -74.21630000
C      -45.62690000     -31.65840000     -71.63320000
H      -45.03970000     -32.48630000     -72.04420000
H      -45.20720000     -31.38000000     -70.66920000
C      -44.80730000     -35.40960000     -72.52900000
H      -44.41530000     -34.70970000     -71.82820000
H      -44.17330000     -36.29650000     -72.38120000
C      -46.34170000     -35.50780000     -72.24330000
H      -46.66140000     -34.54090000     -72.66010000
H      -46.80390000     -36.28370000     -72.84730000
C      -47.09780000     -32.13600000     -71.48020000
H      -47.30980000     -32.51820000     -72.50200000
H      -47.74720000     -31.30790000     -71.34890000
C      -47.39090000     -33.03300000     -70.29030000
C      -47.88580000     -32.44780000     -69.12130000
C      -47.14700000     -34.42260000     -70.04960000
H      -47.97120000     -31.34690000     -68.97050000
C      -47.38900000     -34.80400000     -68.72350000
C      -46.68080000     -35.53710000     -70.83120000
C      -46.62550000     -36.70580000     -70.14430000
S      -48.18670000     -33.56480000     -67.80930000
S      -47.00240000     -36.53880000     -68.44110000
H      -46.40110000     -37.68310000     -70.57050000
