40
Properties=species:S:1:pos:R:3 #=T CELL(abcABC):=T 1.889726e+02=T 90.00000=T Traj:=T positionsangstrom=T Step:=T 0=T Bead:=T pbc="F F F"
C      -43.02500000     -32.28970000     -67.75320000
C      -44.00420000     -33.30230000     -67.96730000
C      -43.73250000     -34.36560000     -68.86080000
C      -42.46720000     -34.52470000     -69.40800000
C      -41.52510000     -33.56880000     -69.18770000
C      -41.77680000     -32.45080000     -68.36940000
H      -43.24470000     -31.42520000     -67.10380000
H      -44.40220000     -35.19610000     -68.98210000
H      -40.50100000     -33.58460000     -69.61880000
H      -41.08530000     -31.66630000     -68.21440000
C      -42.05580000     -35.86760000     -70.06620000
H      -41.94930000     -36.66960000     -69.24470000
H      -41.15160000     -35.90360000     -70.58600000
C      -45.43560000     -33.12710000     -67.39140000
H      -45.41090000     -33.88530000     -66.55370000
H      -45.77390000     -32.26630000     -66.89500000
S      -43.48900000     -36.50200000     -71.13890000
S      -46.89410000     -33.60930000     -68.28830000
C      -43.68960000     -35.25510000     -72.50630000
H      -42.74720000     -34.81830000     -72.55650000
H      -43.74980000     -35.80770000     -73.48330000
C      -46.92020000     -32.58950000     -69.81640000
H      -45.88700000     -32.34080000     -70.15750000
H      -47.39820000     -31.56620000     -69.62790000
C      -47.84810000     -33.33510000     -70.84030000
H      -47.46860000     -34.37350000     -70.85940000
H      -48.92430000     -33.30180000     -70.55600000
C      -44.88640000     -34.37820000     -72.17740000
H      -44.64720000     -33.74690000     -71.28640000
H      -45.70530000     -35.04080000     -71.92510000
C      -45.43780000     -33.44880000     -73.24730000
C      -44.76650000     -33.16220000     -74.42260000
C      -46.75820000     -32.80550000     -73.18210000
H      -43.82310000     -33.40860000     -74.76780000
C      -47.01890000     -32.12110000     -74.37230000
C      -47.82300000     -32.64750000     -72.21940000
C      -48.77490000     -31.74120000     -72.60160000
S      -45.64000000     -32.04830000     -75.42980000
S      -48.42320000     -31.15430000     -74.30040000
H      -49.65340000     -31.31800000     -72.07940000
