40
Properties=species:S:1:pos:R:3 #=T CELL(abcABC):=T 1.889726e+02=T 90.00000=T Traj:=T positionsangstrom=T Step:=T 0=T Bead:=T pbc="F F F"
C      -43.06390000     -32.20840000     -67.76210000
C      -44.05520000     -33.16310000     -67.98560000
C      -43.75800000     -34.32130000     -68.74910000
C      -42.49560000     -34.50800000     -69.32350000
C      -41.48810000     -33.59500000     -69.06370000
C      -41.74150000     -32.42320000     -68.27770000
H      -43.16770000     -31.34270000     -67.06020000
H      -44.58850000     -34.95450000     -69.03810000
H      -40.45250000     -33.66070000     -69.39920000
H      -40.95220000     -31.75970000     -68.10640000
C      -42.10360000     -35.70340000     -70.16740000
H      -41.58190000     -36.47330000     -69.59030000
H      -41.35340000     -35.27090000     -70.85810000
C      -45.33190000     -32.99560000     -67.25550000
H      -45.17700000     -33.63180000     -66.32910000
H      -45.47310000     -31.95790000     -66.87570000
S      -43.45820000     -36.46940000     -71.12630000
S      -46.80780000     -33.74160000     -68.29540000
C      -43.77830000     -35.07930000     -72.38550000
H      -42.94960000     -34.34080000     -72.24330000
H      -43.69280000     -35.38300000     -73.45100000
C      -46.96790000     -32.58280000     -69.74930000
H      -46.04460000     -32.35170000     -70.23180000
H      -47.45300000     -31.68150000     -69.41360000
C      -47.74410000     -33.34760000     -70.86680000
H      -47.32900000     -34.40590000     -71.03940000
H      -48.78530000     -33.49530000     -70.53560000
C      -45.14560000     -34.43650000     -72.25090000
H      -45.29620000     -34.13690000     -71.19260000
H      -45.91070000     -35.22510000     -72.26920000
C      -45.45780000     -33.39370000     -73.24850000
C      -44.72590000     -33.13250000     -74.35150000
C      -46.68470000     -32.64760000     -73.19980000
H      -43.87150000     -33.55620000     -74.69720000
C      -46.89470000     -31.87170000     -74.35240000
C      -47.77260000     -32.73400000     -72.26550000
C      -48.82680000     -32.06560000     -72.79290000
S      -45.55100000     -32.01220000     -75.49260000
S      -48.58620000     -31.40780000     -74.36720000
H      -49.73480000     -31.79530000     -72.29330000
