40
Properties=species:S:1:pos:R:3 #=T CELL(abcABC):=T 1.889726e+02=T 90.00000=T Traj:=T positionsangstrom=T Step:=T 0=T Bead:=T pbc="F F F"
C      -43.11810000     -32.26640000     -67.72180000
C      -44.13420000     -33.14400000     -68.08270000
C      -43.79940000     -34.23850000     -68.83420000
C      -42.42330000     -34.44100000     -69.25050000
C      -41.41720000     -33.55110000     -68.86420000
C      -41.80150000     -32.48090000     -68.08320000
H      -43.40730000     -31.39750000     -67.10070000
H      -44.55270000     -34.89140000     -69.16880000
H      -40.35960000     -33.74970000     -69.11770000
H      -41.03480000     -31.86720000     -67.76740000
C      -41.98390000     -35.60870000     -70.07030000
H      -41.69210000     -36.38590000     -69.31620000
H      -41.07480000     -35.39110000     -70.56410000
C      -45.44010000     -32.99900000     -67.44750000
H      -45.60660000     -33.61580000     -66.54020000
H      -45.61500000     -31.98550000     -67.01510000
S      -43.17520000     -36.40070000     -71.25770000
S      -46.88040000     -33.69930000     -68.34880000
C      -43.52010000     -34.97650000     -72.43360000
H      -42.63880000     -34.49090000     -72.73750000
H      -43.88060000     -35.50070000     -73.40810000
C      -47.11380000     -32.76940000     -69.95050000
H      -46.16800000     -32.47530000     -70.25310000
H      -47.66960000     -31.89050000     -69.64130000
C      -47.94830000     -33.53780000     -70.93420000
H      -47.47970000     -34.50290000     -71.02490000
H      -49.01160000     -33.64690000     -70.51940000
C      -44.60790000     -33.95880000     -71.98260000
H      -44.07010000     -33.24350000     -71.35490000
H      -45.36070000     -34.46250000     -71.34830000
C      -45.44020000     -33.40800000     -73.17960000
C      -44.73780000     -33.03840000     -74.28930000
C      -46.84150000     -33.02100000     -73.24190000
H      -43.59820000     -33.05010000     -74.35000000
C      -47.01960000     -32.16810000     -74.35890000
C      -47.98250000     -32.89820000     -72.32650000
C      -48.95400000     -32.03720000     -72.77960000
S      -45.66600000     -31.98630000     -75.39530000
S      -48.61260000     -31.45320000     -74.39590000
H      -49.84280000     -31.80820000     -72.28220000
