40
Properties=species:S:1:pos:R:3 #=T CELL(abcABC):=T 1.889726e+02=T 90.00000=T Traj:=T positionsangstrom=T Step:=T 0=T Bead:=T pbc="F F F"
C      -43.20150000     -32.23180000     -67.64170000
C      -44.16240000     -33.18200000     -68.02580000
C      -43.74610000     -34.23620000     -68.83020000
C      -42.41960000     -34.39810000     -69.20630000
C      -41.41550000     -33.35570000     -68.80190000
C      -41.88820000     -32.27140000     -68.12260000
H      -43.57190000     -31.36600000     -67.10400000
H      -44.43860000     -34.93520000     -69.08490000
H      -40.35140000     -33.46640000     -69.08820000
H      -41.23610000     -31.47920000     -67.87780000
C      -42.03390000     -35.52810000     -70.05370000
H      -41.71220000     -36.39890000     -69.46520000
H      -41.19650000     -35.22730000     -70.71640000
C      -45.62140000     -32.98340000     -67.51900000
H      -45.52610000     -33.28990000     -66.44590000
H      -45.87550000     -31.96800000     -67.64150000
S      -43.27500000     -36.22370000     -71.25640000
S      -46.85590000     -33.99200000     -68.39330000
C      -43.53730000     -34.84650000     -72.42430000
H      -42.70980000     -34.13080000     -72.46530000
H      -43.62900000     -35.41920000     -73.39560000
C      -47.10970000     -32.86420000     -69.86550000
H      -46.14490000     -32.55090000     -70.33850000
H      -47.61000000     -31.89500000     -69.55530000
C      -47.85020000     -33.61150000     -70.95350000
H      -47.40170000     -34.66110000     -71.09880000
H      -48.88660000     -33.77560000     -70.62940000
C      -44.73540000     -34.06440000     -72.04370000
H      -44.54740000     -33.51760000     -71.12020000
H      -45.57550000     -34.70990000     -71.64780000
C      -45.25140000     -33.12360000     -73.13920000
C      -44.63180000     -32.89050000     -74.34110000
C      -46.60270000     -32.68700000     -73.13370000
H      -43.60710000     -33.24640000     -74.46750000
C      -46.92400000     -31.97020000     -74.28160000
C      -47.79020000     -32.92050000     -72.27420000
C      -48.96010000     -32.39870000     -72.81300000
S      -45.65680000     -32.10670000     -75.53300000
S      -48.67270000     -31.58720000     -74.32310000
H      -49.81850000     -32.21770000     -72.22070000
