40
Properties=species:S:1:pos:R:3 #=T CELL(abcABC):=T 1.889726e+02=T 90.00000=T Traj:=T positionsangstrom=T Step:=T 0=T Bead:=T pbc="F F F"
C      -43.25480000     -32.13110000     -67.71170000
C      -44.16770000     -33.23090000     -67.87560000
C      -43.68170000     -34.32970000     -68.58980000
C      -42.37400000     -34.33790000     -69.07660000
C      -41.51020000     -33.23200000     -68.93890000
C      -41.99370000     -32.09690000     -68.24730000
H      -43.60470000     -31.30220000     -67.15950000
H      -44.29310000     -35.15560000     -68.82670000
H      -40.51020000     -33.14870000     -69.39080000
H      -41.33440000     -31.17220000     -68.12250000
C      -41.89170000     -35.53770000     -69.90100000
H      -41.59520000     -36.41340000     -69.32340000
H      -40.97170000     -35.19180000     -70.45100000
C      -45.62910000     -33.12830000     -67.33060000
H      -45.61790000     -33.43850000     -66.30370000
H      -46.17110000     -32.13080000     -67.32290000
S      -43.15750000     -36.26740000     -71.19470000
S      -46.81630000     -34.10240000     -68.39760000
C      -43.34840000     -34.88380000     -72.40260000
H      -42.47920000     -34.16380000     -72.38960000
H      -43.36360000     -35.27320000     -73.36550000
C      -47.07630000     -32.95510000     -69.76850000
H      -46.12770000     -32.44720000     -69.99130000
H      -47.73870000     -32.15010000     -69.50690000
C      -47.76790000     -33.65840000     -70.96200000
H      -47.28720000     -34.62180000     -71.13810000
H      -48.79070000     -33.88980000     -70.70600000
C      -44.71980000     -34.13900000     -72.15330000
H      -44.53720000     -33.46590000     -71.32450000
H      -45.46640000     -34.86600000     -71.85570000
C      -45.29930000     -33.23630000     -73.28290000
C      -44.69690000     -32.82830000     -74.44580000
C      -46.70610000     -32.78080000     -73.27660000
H      -43.69240000     -33.06800000     -74.68360000
C      -47.06250000     -32.13290000     -74.40690000
C      -47.82860000     -32.89190000     -72.29080000
C      -48.96950000     -32.21720000     -72.80170000
S      -45.72550000     -31.86980000     -75.49670000
S      -48.73470000     -31.60930000     -74.42560000
H      -49.94570000     -32.08560000     -72.31720000
