40
Properties=species:S:1:pos:R:3 #=T CELL(abcABC):=T 1.889726e+02=T 90.00000=T Traj:=T positionsangstrom=T Step:=T 0=T Bead:=T pbc="F F F"
C      -43.47080000     -32.04200000     -67.92610000
C      -44.21870000     -33.21690000     -67.94090000
C      -43.68640000     -34.36450000     -68.63900000
C      -42.40590000     -34.26520000     -69.14350000
C      -41.64090000     -33.14990000     -69.15230000
C      -42.17270000     -32.00020000     -68.50220000
H      -43.81100000     -31.11720000     -67.46170000
H      -44.32320000     -35.29430000     -68.84840000
H      -40.67370000     -33.02200000     -69.68350000
H      -41.58720000     -31.03820000     -68.49650000
C      -41.87930000     -35.45820000     -69.90390000
H      -41.77090000     -36.33920000     -69.21580000
H      -40.93240000     -35.31020000     -70.33190000
C      -45.57180000     -33.29190000     -67.29260000
H      -45.48080000     -33.96240000     -66.44550000
H      -45.97760000     -32.35470000     -66.83570000
S      -43.01650000     -36.18690000     -71.15070000
S      -46.80250000     -34.01390000     -68.43500000
C      -43.39640000     -34.85720000     -72.48990000
H      -42.53050000     -34.16780000     -72.56640000
H      -43.49990000     -35.42230000     -73.45200000
C      -47.01150000     -32.86100000     -69.89530000
H      -46.03830000     -32.75660000     -70.34650000
H      -47.48410000     -31.91510000     -69.65960000
C      -47.84010000     -33.72580000     -70.92500000
H      -47.38700000     -34.76640000     -70.96730000
H      -48.85950000     -33.80680000     -70.50020000
C      -44.70840000     -34.17730000     -72.17290000
H      -44.58120000     -33.53740000     -71.24890000
H      -45.38300000     -34.97350000     -71.95200000
C      -45.35820000     -33.34880000     -73.22420000
C      -44.72910000     -32.95250000     -74.37720000
C      -46.73540000     -32.87800000     -73.15750000
H      -43.70220000     -33.17140000     -74.64890000
C      -47.04560000     -32.18730000     -74.29890000
C      -47.83410000     -33.05470000     -72.24950000
C      -48.95400000     -32.35350000     -72.70940000
S      -45.69620000     -31.92100000     -75.40900000
S      -48.64890000     -31.52060000     -74.29370000
H      -49.97330000     -32.39840000     -72.31550000
