40
Properties=species:S:1:pos:R:3 #=T CELL(abcABC):=T 1.889726e+02=T 90.00000=T Traj:=T positionsangstrom=T Step:=T 0=T Bead:=T pbc="F F F"
C      -43.79340000     -31.78870000     -68.54350000
C      -44.35990000     -33.12980000     -68.26100000
C      -43.69260000     -34.22160000     -68.80300000
C      -42.52790000     -34.05240000     -69.61370000
C      -41.94620000     -32.77210000     -69.71660000
C      -42.59320000     -31.66850000     -69.23300000
H      -44.29580000     -30.91400000     -68.06490000
H      -44.17770000     -35.18560000     -68.72490000
H      -40.98340000     -32.65140000     -70.10880000
H      -42.22460000     -30.64000000     -69.30670000
C      -41.80110000     -35.31110000     -70.02860000
H      -41.57190000     -35.92420000     -69.22640000
H      -40.84810000     -34.98020000     -70.49920000
C      -45.53370000     -33.35260000     -67.39950000
H      -45.36530000     -34.02370000     -66.57630000
H      -45.85800000     -32.41470000     -66.98680000
S      -42.72150000     -36.29570000     -71.26580000
S      -47.02090000     -34.20150000     -68.16500000
C      -43.38140000     -35.04030000     -72.47040000
H      -42.73300000     -34.12940000     -72.57970000
H      -43.44890000     -35.59140000     -73.45020000
C      -47.27540000     -33.03350000     -69.59410000
H      -46.24200000     -32.63630000     -69.84800000
H      -47.89720000     -32.15800000     -69.35630000
C      -47.87970000     -33.81140000     -70.76090000
H      -47.40260000     -34.78540000     -70.86110000
H      -48.90510000     -34.03340000     -70.46290000
C      -44.77500000     -34.58000000     -72.10060000
H      -44.73610000     -34.16860000     -71.15560000
H      -45.48540000     -35.41230000     -72.08150000
C      -45.32580000     -33.55550000     -73.06050000
C      -44.60850000     -33.04430000     -74.12070000
C      -46.67300000     -32.93340000     -72.91430000
H      -43.62820000     -33.26860000     -74.49000000
C      -46.86130000     -32.09350000     -74.06730000
C      -47.79460000     -33.02320000     -72.08400000
C      -48.81890000     -32.24400000     -72.56430000
S      -45.50990000     -31.94820000     -75.16600000
S      -48.49370000     -31.40680000     -74.16210000
H      -49.78800000     -32.06310000     -72.11930000
