40
Properties=species:S:1:pos:R:3 #=T CELL(abcABC):=T 1.889726e+02=T 90.00000=T Traj:=T positionsangstrom=T Step:=T 0=T Bead:=T pbc="F F F"
C      -44.39250000     -31.97110000     -68.86620000
C      -44.40760000     -33.17820000     -68.18960000
C      -43.38740000     -34.09780000     -68.58070000
C      -42.48040000     -33.78550000     -69.62230000
C      -42.47350000     -32.50500000     -70.20930000
C      -43.44130000     -31.57140000     -69.83690000
H      -45.29850000     -31.36850000     -68.71310000
H      -43.41340000     -35.07770000     -68.09990000
H      -41.68100000     -32.24230000     -70.97220000
H      -43.52770000     -30.55160000     -70.25390000
C      -41.63000000     -34.89540000     -70.10320000
H      -41.29040000     -35.46790000     -69.19070000
H      -40.75130000     -34.52530000     -70.55480000
C      -45.54150000     -33.56950000     -67.28210000
H      -45.15600000     -34.22260000     -66.53250000
H      -45.86190000     -32.70400000     -66.79290000
S      -42.52990000     -36.13140000     -71.13470000
S      -47.05870000     -34.33720000     -68.16020000
C      -43.32150000     -35.14170000     -72.54230000
H      -42.66310000     -34.23900000     -72.58250000
H      -43.26410000     -35.77240000     -73.45530000
C      -47.05410000     -33.34000000     -69.72860000
H      -46.08330000     -32.94960000     -69.96130000
H      -47.64340000     -32.40210000     -69.50790000
C      -47.78270000     -34.02230000     -70.88720000
H      -47.30350000     -34.98140000     -71.16440000
H      -48.74670000     -34.29560000     -70.51010000
C      -44.75150000     -34.79170000     -72.14860000
H      -44.75840000     -34.39320000     -71.10970000
H      -45.37580000     -35.66510000     -72.07670000
C      -45.35070000     -33.69760000     -73.15120000
C      -44.62500000     -33.18070000     -74.17970000
C      -46.63380000     -33.05690000     -72.99180000
H      -43.58850000     -33.58630000     -74.40680000
C      -46.81090000     -32.07570000     -73.94870000
C      -47.76680000     -33.13920000     -72.09440000
C      -48.76390000     -32.27810000     -72.40940000
S      -45.41160000     -31.91540000     -75.08730000
S      -48.36420000     -31.17310000     -73.77800000
H      -49.72790000     -32.27490000     -71.94650000
