40
Properties=species:S:1:pos:R:3 #=T CELL(abcABC):=T 1.889726e+02=T 90.00000=T Traj:=T positionsangstrom=T Step:=T 0=T Bead:=T pbc="F F F"
C      -44.62810000     -32.10820000     -68.39040000
C      -44.81090000     -33.49060000     -68.12970000
C      -43.87780000     -34.41480000     -68.61010000
C      -42.64860000     -33.98560000     -69.25660000
C      -42.60210000     -32.61620000     -69.66100000
C      -43.61230000     -31.72960000     -69.17670000
H      -45.31610000     -31.41770000     -68.02960000
H      -44.02430000     -35.40370000     -68.23480000
H      -41.76760000     -32.17830000     -70.11990000
H      -43.54420000     -30.68550000     -69.36720000
C      -41.56570000     -34.95410000     -69.84870000
H      -41.30230000     -35.72260000     -69.05620000
H      -40.77830000     -34.40230000     -70.24260000
C      -46.07970000     -33.82840000     -67.40460000
H      -45.93140000     -34.56600000     -66.62670000
H      -46.62240000     -32.95920000     -66.91480000
S      -42.26920000     -35.93480000     -71.35520000
S      -47.34760000     -34.64590000     -68.49240000
C      -42.82370000     -34.59970000     -72.41040000
H      -42.33510000     -33.70500000     -72.09020000
H      -42.58450000     -34.83100000     -73.42230000
C      -47.23040000     -33.49800000     -70.00920000
H      -46.21100000     -33.07060000     -70.15880000
H      -47.93800000     -32.65960000     -69.81620000
C      -47.67820000     -34.30800000     -71.27020000
H      -46.88990000     -35.05460000     -71.39930000
H      -48.60740000     -34.79690000     -71.02460000
C      -44.38920000     -34.43610000     -72.21570000
H      -44.63100000     -34.21520000     -71.15080000
H      -44.80010000     -35.45250000     -72.24530000
C      -45.10000000     -33.45580000     -73.14730000
C      -44.35260000     -32.72800000     -74.03460000
C      -46.48620000     -32.96660000     -73.07670000
H      -43.27280000     -32.91730000     -74.35310000
C      -46.65280000     -31.86770000     -73.91610000
C      -47.68930000     -33.25210000     -72.39610000
C      -48.76940000     -32.49850000     -72.72220000
S      -45.28720000     -31.56280000     -74.92930000
S      -48.31070000     -31.25450000     -73.83210000
H      -49.78940000     -32.49630000     -72.36480000
