40
Properties=species:S:1:pos:R:3 #=T CELL(abcABC):=T 1.889726e+02=T 90.00000=T Traj:=T positionsangstrom=T Step:=T 0=T Bead:=T pbc="F F F"
C      -44.53120000     -32.23560000     -68.14570000
C      -44.89470000     -33.63110000     -67.95920000
C      -44.05260000     -34.61230000     -68.48220000
C      -42.88000000     -34.20150000     -69.23420000
C      -42.52620000     -32.85420000     -69.33170000
C      -43.28750000     -31.82540000     -68.71310000
H      -45.21410000     -31.50990000     -67.70360000
H      -44.14920000     -35.69350000     -68.29860000
H      -41.58690000     -32.58230000     -69.83540000
H      -42.97050000     -30.75800000     -68.70990000
C      -41.97110000     -35.38160000     -69.69720000
H      -42.17030000     -36.22530000     -69.03860000
H      -40.94720000     -34.98330000     -69.65090000
C      -46.17650000     -33.99500000     -67.26280000
H      -46.00690000     -34.86580000     -66.65470000
H      -46.54830000     -33.22880000     -66.61470000
S      -42.33970000     -35.92170000     -71.40750000
S      -47.61810000     -34.38480000     -68.43370000
C      -42.91410000     -34.35540000     -72.32590000
H      -42.34830000     -33.48920000     -71.87300000
H      -42.58830000     -34.58170000     -73.35690000
C      -47.38350000     -33.28260000     -69.83140000
H      -46.37820000     -32.88860000     -69.61240000
H      -48.14850000     -32.47960000     -69.77610000
C      -47.48810000     -34.04290000     -71.16500000
H      -46.69510000     -34.78900000     -71.23310000
H      -48.45140000     -34.58580000     -71.20340000
C      -44.42730000     -34.08000000     -72.12610000
H      -44.74100000     -33.92430000     -71.11240000
H      -45.02700000     -34.97460000     -72.23550000
C      -44.89600000     -33.03390000     -72.98930000
C      -44.14370000     -32.34460000     -73.95250000
C      -46.30160000     -32.78090000     -73.17800000
H      -43.10050000     -32.48250000     -74.06050000
C      -46.56890000     -31.92310000     -74.24530000
C      -47.49170000     -33.21880000     -72.41080000
C      -48.62800000     -32.80100000     -73.07770000
S      -45.09050000     -31.34240000     -75.00800000
S      -48.31720000     -31.78370000     -74.42790000
H      -49.64760000     -33.03860000     -72.84310000
