40
Properties=species:S:1:pos:R:3 #=T CELL(abcABC):=T 1.889726e+02=T 90.00000=T Traj:=T positionsangstrom=T Step:=T 0=T Bead:=T pbc="F F F"
C      -44.59080000     -32.34120000     -68.21200000
C      -44.92860000     -33.65990000     -67.95520000
C      -44.07400000     -34.66790000     -68.46880000
C      -42.88540000     -34.30020000     -69.01450000
C      -42.37960000     -32.99980000     -69.10120000
C      -43.25900000     -32.01620000     -68.63830000
H      -45.30960000     -31.59800000     -68.00960000
H      -44.38550000     -35.70140000     -68.47930000
H      -41.40870000     -32.81260000     -69.58860000
H      -42.98980000     -30.97940000     -68.68940000
C      -41.92300000     -35.30030000     -69.55260000
H      -41.80400000     -36.24670000     -68.86910000
H      -40.95300000     -34.92730000     -69.63360000
C      -46.20770000     -33.95250000     -67.28600000
H      -46.00400000     -34.90000000     -66.74050000
H      -46.49850000     -33.21860000     -66.45280000
S      -42.42890000     -35.91360000     -71.25050000
S      -47.67440000     -34.30070000     -68.50380000
C      -42.74250000     -34.29640000     -72.12030000
H      -41.96110000     -33.61340000     -71.74830000
H      -42.60940000     -34.38950000     -73.18140000
C      -47.26970000     -33.28890000     -70.08300000
H      -46.20330000     -33.08870000     -69.92980000
H      -47.72370000     -32.30320000     -70.12350000
C      -47.58100000     -34.18830000     -71.29950000
H      -46.95340000     -35.10590000     -71.33560000
H      -48.58060000     -34.53620000     -71.17080000
C      -44.23810000     -33.78300000     -71.94480000
H      -44.28230000     -33.26210000     -70.95750000
H      -44.82840000     -34.70950000     -71.92000000
C      -44.87780000     -32.93550000     -72.99190000
C      -44.15070000     -32.23560000     -73.96290000
C      -46.29160000     -32.73530000     -73.16160000
H      -43.08280000     -32.20260000     -74.13850000
C      -46.55760000     -31.97450000     -74.25100000
C      -47.49240000     -33.28590000     -72.54740000
C      -48.66220000     -32.85320000     -73.16700000
S      -45.21810000     -31.41290000     -75.15260000
S      -48.25930000     -31.73990000     -74.50810000
H      -49.67130000     -33.01540000     -72.86370000
