40
Properties=species:S:1:pos:R:3 #=T CELL(abcABC):=T 1.889726e+02=T 90.00000=T Traj:=T positionsangstrom=T Step:=T 0=T Bead:=T pbc="F F F"
C      -46.15150000     -32.31950000     -68.09210000
C      -45.96760000     -33.76100000     -67.97680000
C      -44.68750000     -34.23220000     -68.08750000
C      -43.54560000     -33.36930000     -68.27420000
C      -43.82890000     -32.00020000     -68.45330000
C      -45.07880000     -31.47480000     -68.32680000
H      -47.19000000     -32.00540000     -68.08850000
H      -44.53960000     -35.27080000     -67.85260000
H      -42.96200000     -31.35990000     -68.72040000
H      -45.28030000     -30.40020000     -68.38610000
C      -42.15810000     -33.97570000     -68.43050000
H      -42.12680000     -34.62810000     -67.61470000
H      -41.30180000     -33.26830000     -68.44130000
C      -47.07320000     -34.70610000     -67.75650000
H      -46.66650000     -35.66110000     -67.45780000
H      -47.88610000     -34.28340000     -67.06650000
S      -42.13200000     -35.03590000     -69.98890000
S      -47.96460000     -35.09650000     -69.35670000
C      -42.57090000     -33.93170000     -71.38570000
H      -42.63470000     -32.85640000     -71.04600000
H      -41.68410000     -34.06440000     -72.09080000
C      -47.45300000     -33.93970000     -70.72400000
H      -46.48900000     -33.39840000     -70.39960000
H      -48.21380000     -33.15700000     -70.77390000
C      -47.31600000     -34.63600000     -72.10020000
H      -46.51080000     -35.36430000     -72.04620000
H      -48.29150000     -35.03780000     -72.34370000
C      -43.88360000     -34.30040000     -71.95790000
H      -44.69420000     -34.20390000     -71.20960000
H      -43.86880000     -35.29680000     -72.40380000
C      -44.33700000     -33.22940000     -72.95730000
C      -43.54330000     -32.44190000     -73.68620000
C      -45.75390000     -33.12710000     -73.58560000
H      -42.47480000     -32.26700000     -73.49470000
C      -45.81600000     -32.25160000     -74.63300000
C      -47.07760000     -33.67570000     -73.24460000
C      -48.07360000     -33.00010000     -73.92860000
S      -44.24330000     -31.50660000     -74.97670000
S      -47.45480000     -31.92500000     -75.16840000
H      -49.15550000     -33.08620000     -73.85970000
