40
Properties=species:S:1:pos:R:3 #=T CELL(abcABC):=T 1.889726e+02=T 90.00000=T Traj:=T positionsangstrom=T Step:=T 0=T Bead:=T pbc="F F F"
C      -46.73810000     -32.09870000     -68.29000000
C      -46.48870000     -33.46600000     -68.18800000
C      -45.20520000     -33.94070000     -68.09330000
C      -44.08450000     -33.10460000     -68.28070000
C      -44.40540000     -31.73480000     -68.30960000
C      -45.65770000     -31.19320000     -68.35800000
H      -47.74310000     -31.78880000     -68.28450000
H      -45.05420000     -35.01050000     -67.89490000
H      -43.60700000     -31.00210000     -68.39040000
H      -45.80150000     -30.11900000     -68.36520000
C      -42.66410000     -33.61440000     -68.06400000
H      -42.63130000     -34.27500000     -67.15530000
H      -42.06730000     -32.72080000     -67.93600000
C      -47.72000000     -34.31970000     -68.24950000
H      -47.85480000     -34.94320000     -67.38950000
H      -48.61860000     -33.73740000     -68.34010000
S      -42.13510000     -34.73530000     -69.49030000
S      -47.72770000     -35.53310000     -69.58120000
C      -42.36250000     -33.69680000     -70.97270000
H      -42.10920000     -32.64090000     -70.63250000
H      -41.74510000     -34.01480000     -71.82070000
C      -47.87760000     -34.43440000     -71.13800000
H      -47.74480000     -33.42090000     -70.74790000
H      -48.90150000     -34.61340000     -71.50890000
C      -46.88020000     -34.88490000     -72.20470000
H      -45.94390000     -35.09460000     -71.80010000
H      -47.27510000     -35.79460000     -72.66370000
C      -43.88120000     -33.71230000     -71.47500000
H      -44.53740000     -33.41680000     -70.68520000
H      -44.09890000     -34.76650000     -71.69260000
C      -44.15330000     -33.01110000     -72.81390000
C      -43.27130000     -32.23550000     -73.47750000
C      -45.37710000     -33.16090000     -73.52150000
H      -42.29350000     -31.87750000     -73.27790000
C      -45.46780000     -32.35860000     -74.67390000
C      -46.57930000     -33.88580000     -73.28620000
C      -47.62920000     -33.55590000     -74.14620000
S      -43.95290000     -31.59370000     -74.96060000
S      -47.03500000     -32.51600000     -75.50300000
H      -48.62930000     -33.88580000     -73.99210000
