40
Properties=species:S:1:pos:R:3 #=T CELL(abcABC):=T 1.889726e+02=T 90.00000=T Traj:=T positionsangstrom=T Step:=T 0=T Bead:=T pbc="F F F"
C      -43.12300000     -34.65970000     -73.80820000
C      -43.86010000     -33.63520000     -74.39270000
C      -43.64050000     -32.30320000     -73.94760000
C      -42.61090000     -31.98080000     -72.99530000
C      -41.87020000     -33.01740000     -72.48320000
C      -42.23300000     -34.32990000     -72.73780000
H      -43.47150000     -35.65040000     -73.81180000
H      -44.23580000     -31.49350000     -74.38270000
H      -41.01790000     -32.80630000     -71.75340000
H      -41.71270000     -35.04940000     -72.15820000
C      -42.44940000     -30.50110000     -72.60930000
H      -42.26310000     -29.87990000     -73.47640000
H      -41.69220000     -30.26070000     -71.90980000
C      -44.91640000     -33.86680000     -75.38190000
H      -44.96300000     -33.25970000     -76.27180000
H      -44.81290000     -34.94170000     -75.64430000
S      -44.07770000     -29.90580000     -71.91580000
S      -46.64370000     -33.79520000     -74.55760000
C      -44.40770000     -30.90720000     -70.32510000
H      -43.47500000     -31.48180000     -70.11470000
H      -44.60200000     -30.16770000     -69.61560000
C      -46.47220000     -34.85960000     -72.99890000
H      -45.51900000     -34.58000000     -72.58880000
H      -46.54570000     -35.96520000     -73.12960000
C      -47.57350000     -34.30390000     -72.06410000
H      -47.54910000     -33.20670000     -72.01490000
H      -48.55740000     -34.60450000     -72.50820000
C      -45.46770000     -31.98330000     -70.67910000
H      -44.94570000     -32.67180000     -71.43880000
H      -46.43570000     -31.57760000     -71.07130000
C      -45.76880000     -32.81600000     -69.48510000
C      -45.23750000     -32.65770000     -68.23400000
C      -46.66110000     -33.96190000     -69.54630000
H      -44.66040000     -31.73890000     -67.84860000
C      -46.76320000     -34.62320000     -68.28090000
C      -47.32650000     -34.76830000     -70.64700000
C      -47.90420000     -35.93100000     -70.17620000
S      -45.91480000     -33.76530000     -67.04260000
S      -47.64380000     -36.11910000     -68.36930000
H      -48.30440000     -36.85630000     -70.65520000
