40
Properties=species:S:1:pos:R:3 #=T CELL(abcABC):=T 1.889726e+02=T 90.00000=T Traj:=T positionsangstrom=T Step:=T 0=T Bead:=T pbc="F F F"
C      -43.00110000     -34.51940000     -74.49240000
C      -44.02390000     -33.52930000     -74.63390000
C      -43.85140000     -32.30720000     -73.96550000
C      -42.73470000     -32.04260000     -73.20310000
C      -41.71270000     -33.02520000     -73.12450000
C      -41.84350000     -34.27170000     -73.72650000
H      -43.07210000     -35.48530000     -74.94900000
H      -44.54270000     -31.51220000     -74.16590000
H      -40.83660000     -32.87870000     -72.57320000
H      -41.16560000     -35.08810000     -73.77780000
C      -42.51180000     -30.77120000     -72.54330000
H      -42.25150000     -29.92480000     -73.28120000
H      -41.58980000     -30.79980000     -71.82840000
C      -45.29830000     -33.94370000     -75.46630000
H      -45.36700000     -33.43010000     -76.45910000
H      -45.24640000     -35.06670000     -75.74780000
S      -43.84510000     -30.01290000     -71.56140000
S      -46.77950000     -33.51780000     -74.50750000
C      -44.24700000     -31.45210000     -70.40680000
H      -43.95700000     -32.24440000     -71.09280000
H      -43.59070000     -31.40330000     -69.48430000
C      -46.46310000     -34.02980000     -72.70380000
H      -45.65400000     -33.44400000     -72.28830000
H      -46.12710000     -35.07640000     -72.80490000
C      -47.70840000     -33.85360000     -71.84890000
H      -47.91670000     -32.80030000     -71.85720000
H      -48.47000000     -34.38320000     -72.32330000
C      -45.67050000     -31.64040000     -70.08470000
H      -46.15690000     -31.89690000     -71.05290000
H      -46.10880000     -30.76520000     -69.70320000
C      -45.90150000     -32.77740000     -69.09270000
C      -45.43580000     -32.76200000     -67.84250000
C      -46.71900000     -33.93490000     -69.33830000
H      -44.83810000     -32.05210000     -67.32360000
C      -46.75910000     -34.80270000     -68.24480000
C      -47.46970000     -34.49830000     -70.42580000
C      -47.97270000     -35.74340000     -70.20800000
S      -45.72210000     -34.21100000     -66.97620000
S      -47.52600000     -36.34440000     -68.59170000
H      -48.45460000     -36.32230000     -70.92140000
