40
Properties=species:S:1:pos:R:3 #=T CELL(abcABC):=T 1.889726e+02=T 90.00000=T Traj:=T positionsangstrom=T Step:=T 0=T Bead:=T pbc="F F F"
C      -43.07800000     -34.40380000     -74.72580000
C      -44.08380000     -33.41520000     -74.59140000
C      -43.71750000     -32.23680000     -73.96170000
C      -42.49660000     -32.05230000     -73.33020000
C      -41.49120000     -33.01790000     -73.41330000
C      -41.84770000     -34.21910000     -74.00430000
H      -43.10300000     -35.24780000     -75.34660000
H      -44.46870000     -31.44490000     -73.87590000
H      -40.47600000     -32.85690000     -73.01050000
H      -41.12210000     -35.01280000     -74.11110000
C      -42.27730000     -30.80320000     -72.56040000
H      -42.10120000     -30.03010000     -73.27070000
H      -41.39160000     -30.90830000     -71.98750000
C      -45.39410000     -33.51110000     -75.36180000
H      -45.58750000     -32.72500000     -76.04260000
H      -45.41100000     -34.41800000     -75.84390000
S      -43.79010000     -30.29900000     -71.51470000
S      -46.97210000     -33.50290000     -74.35680000
C      -44.27470000     -31.82470000     -70.68740000
H      -44.25100000     -32.71310000     -71.32710000
H      -43.57180000     -32.13460000     -69.92180000
C      -46.62880000     -33.99510000     -72.65990000
H      -45.77720000     -33.44090000     -72.22520000
H      -46.34660000     -35.05260000     -72.67890000
C      -47.83250000     -33.85880000     -71.76810000
H      -48.14040000     -32.78060000     -71.70980000
H      -48.69930000     -34.36520000     -72.15570000
C      -45.58530000     -31.59160000     -69.94850000
H      -46.41010000     -31.23660000     -70.56790000
H      -45.33040000     -30.74470000     -69.30120000
C      -45.88460000     -32.73020000     -69.03000000
C      -45.34640000     -32.71280000     -67.78160000
C      -46.64610000     -33.91020000     -69.36460000
H      -44.95180000     -31.94440000     -67.23380000
C      -46.61570000     -34.83960000     -68.28630000
C      -47.52330000     -34.46370000     -70.42580000
C      -48.07020000     -35.68040000     -70.11440000
S      -45.71060000     -34.26910000     -66.98230000
S      -47.57780000     -36.29920000     -68.54360000
H      -48.86920000     -36.08990000     -70.73140000
