40
Properties=species:S:1:pos:R:3 #=T CELL(abcABC):=T 1.889726e+02=T 90.00000=T Traj:=T positionsangstrom=T Step:=T 0=T Bead:=T pbc="F F F"
C      -43.35440000     -34.34060000     -75.03020000
C      -44.27500000     -33.29880000     -74.92110000
C      -44.03510000     -32.18860000     -74.07910000
C      -42.75010000     -32.09180000     -73.52600000
C      -41.85260000     -33.18820000     -73.54570000
C      -42.10080000     -34.25260000     -74.41700000
H      -43.52930000     -35.11440000     -75.76950000
H      -44.69060000     -31.32800000     -74.03030000
H      -41.00080000     -33.13020000     -72.93170000
H      -41.29540000     -35.00650000     -74.49900000
C      -42.34610000     -30.86690000     -72.75160000
H      -42.21580000     -30.00170000     -73.41940000
H      -41.36140000     -31.08940000     -72.24760000
C      -45.58010000     -33.34950000     -75.54210000
H      -45.67670000     -32.63340000     -76.32160000
H      -45.80720000     -34.28850000     -75.99000000
S      -43.65540000     -30.28500000     -71.44130000
S      -46.93690000     -32.99200000     -74.23670000
C      -43.75040000     -31.81190000     -70.50440000
H      -43.70220000     -32.68380000     -71.16620000
H      -42.96910000     -31.81590000     -69.73570000
C      -46.70090000     -34.20930000     -72.89910000
H      -45.65730000     -34.20970000     -72.75780000
H      -47.05650000     -35.22120000     -73.17350000
C      -47.62460000     -33.78500000     -71.72090000
H      -47.54160000     -32.75280000     -71.61250000
H      -48.62740000     -33.98380000     -72.10800000
C      -45.18960000     -31.69540000     -69.73690000
H      -45.87060000     -31.45230000     -70.51270000
H      -45.08590000     -30.82890000     -69.10720000
C      -45.61610000     -32.89760000     -68.90960000
C      -45.26400000     -32.98100000     -67.58250000
C      -46.50430000     -34.05840000     -69.27320000
H      -44.42040000     -32.39610000     -67.15380000
C      -46.62140000     -34.92480000     -68.18640000
C      -47.27250000     -34.51760000     -70.45140000
C      -47.92920000     -35.70750000     -70.15660000
S      -45.75860000     -34.46370000     -66.77490000
S      -47.73920000     -36.25770000     -68.42380000
H      -48.55580000     -36.32500000     -70.85290000
