40
Properties=species:S:1:pos:R:3 #=T CELL(abcABC):=T 1.889726e+02=T 90.00000=T Traj:=T positionsangstrom=T Step:=T 0=T Bead:=T pbc="F F F"
C      -43.43210000     -34.33230000     -75.15130000
C      -44.35970000     -33.31970000     -74.89070000
C      -43.93380000     -32.10280000     -74.24710000
C      -42.73000000     -32.09840000     -73.54430000
C      -41.85970000     -33.23580000     -73.69230000
C      -42.20450000     -34.32580000     -74.49290000
H      -43.78890000     -35.18420000     -75.71460000
H      -44.64100000     -31.30130000     -73.98500000
H      -40.92600000     -33.18480000     -73.16680000
H      -41.54490000     -35.15240000     -74.64100000
C      -42.34680000     -30.93580000     -72.65090000
H      -42.17990000     -30.10400000     -73.27590000
H      -41.41850000     -31.10060000     -72.15580000
C      -45.75250000     -33.35690000     -75.48720000
H      -45.77500000     -32.58300000     -76.30210000
H      -46.05080000     -34.28960000     -75.86710000
S      -43.60400000     -30.38350000     -71.42700000
S      -47.11180000     -32.85230000     -74.33650000
C      -43.90720000     -31.93270000     -70.42310000
H      -43.86400000     -32.78640000     -71.06130000
H      -43.02360000     -32.11540000     -69.77560000
C      -46.70310000     -33.97460000     -72.89870000
H      -45.59110000     -33.93620000     -72.76600000
H      -46.95750000     -35.03050000     -73.15490000
C      -47.41520000     -33.52420000     -71.61210000
H      -47.09380000     -32.50030000     -71.27990000
H      -48.49790000     -33.47890000     -71.74700000
C      -45.27690000     -31.79960000     -69.71300000
H      -46.13380000     -31.64130000     -70.39300000
H      -45.37700000     -30.85860000     -69.10340000
C      -45.55190000     -32.98590000     -68.87630000
C      -44.98730000     -33.16560000     -67.63770000
C      -46.48750000     -34.06390000     -69.19200000
H      -44.33720000     -32.36280000     -67.16450000
C      -46.54770000     -34.97920000     -68.16210000
C      -47.19540000     -34.39710000     -70.37290000
C      -47.95910000     -35.50450000     -70.06430000
S      -45.68760000     -34.53710000     -66.67490000
S      -47.70630000     -36.29570000     -68.51750000
H      -48.63240000     -35.97290000     -70.80360000
