40
Properties=species:S:1:pos:R:3 #=T CELL(abcABC):=T 1.889726e+02=T 90.00000=T Traj:=T positionsangstrom=T Step:=T 0=T Bead:=T pbc="F F F"
C      -43.76630000     -36.95180000     -71.84100000
C      -44.01140000     -36.20110000     -73.01660000
C      -45.33130000     -36.01680000     -73.40150000
C      -46.38080000     -36.35220000     -72.58890000
C      -46.13540000     -37.04400000     -71.37050000
C      -44.82180000     -37.40140000     -71.00840000
H      -42.74340000     -37.18310000     -71.53720000
H      -45.51860000     -35.41760000     -74.27270000
H      -46.89200000     -37.38030000     -70.66370000
H      -44.73000000     -38.08110000     -70.10480000
C      -47.80160000     -35.88590000     -73.01900000
H      -48.37020000     -36.71960000     -73.34120000
H      -47.64330000     -35.22530000     -73.92440000
C      -42.88890000     -35.74320000     -73.85450000
H      -41.90100000     -36.17140000     -73.48290000
H      -42.96310000     -35.96800000     -74.97310000
S      -48.81520000     -34.95230000     -71.76920000
S      -42.75290000     -33.86430000     -73.92670000
C      -47.71700000     -33.52590000     -71.40820000
H      -47.43570000     -32.96670000     -72.35670000
H      -48.39470000     -32.91790000     -70.80050000
C      -43.31080000     -33.31510000     -72.28630000
H      -42.57460000     -33.10920000     -71.54350000
H      -43.90320000     -34.11980000     -71.87520000
C      -44.10060000     -32.05760000     -72.53940000
H      -43.57950000     -31.57230000     -73.34990000
H      -45.15150000     -32.25300000     -73.00670000
C      -46.51480000     -33.81590000     -70.55170000
H      -45.76650000     -34.35670000     -71.10510000
H      -46.72940000     -34.50470000     -69.68370000
C      -46.05230000     -32.54230000     -69.79310000
C      -46.60040000     -32.35420000     -68.57070000
C      -45.13470000     -31.51550000     -70.19740000
H      -47.37450000     -32.84470000     -67.95530000
C      -45.22780000     -30.43100000     -69.28250000
C      -44.32060000     -31.13840000     -71.37400000
C      -43.79430000     -29.87640000     -71.26470000
S      -46.18720000     -30.78300000     -67.88050000
S      -44.09750000     -29.08830000     -69.72910000
H      -43.28050000     -29.38170000     -72.03340000
