40
Properties=species:S:1:pos:R:3 #=T CELL(abcABC):=T 1.889726e+02=T 90.00000=T Traj:=T positionsangstrom=T Step:=T 0=T Bead:=T pbc="F F F"
C      -43.60780000     -34.29100000     -75.25350000
C      -44.44390000     -33.21110000     -74.87260000
C      -43.99430000     -32.24170000     -73.99770000
C      -42.69810000     -32.32190000     -73.48630000
C      -41.85500000     -33.35880000     -73.91000000
C      -42.28720000     -34.34890000     -74.82190000
H      -43.95740000     -35.09050000     -75.95730000
H      -44.68230000     -31.44610000     -73.67320000
H      -40.88010000     -33.48980000     -73.34740000
H      -41.53050000     -35.10340000     -75.16770000
C      -42.17920000     -31.20650000     -72.60090000
H      -41.95810000     -30.36500000     -73.19410000
H      -41.36690000     -31.46490000     -72.01180000
C      -45.86650000     -33.09810000     -75.41860000
H      -45.94510000     -32.29760000     -76.04480000
H      -46.07670000     -33.93730000     -76.05410000
S      -43.46540000     -30.42290000     -71.44490000
S      -47.26410000     -32.80480000     -74.13790000
C      -44.15230000     -31.98390000     -70.58330000
H      -44.52890000     -32.70580000     -71.32410000
H      -43.36430000     -32.44370000     -70.06540000
C      -46.87650000     -33.78480000     -72.55610000
H      -45.80940000     -33.70100000     -72.43420000
H      -47.15890000     -34.80930000     -72.77580000
C      -47.65010000     -33.18870000     -71.37230000
H      -47.21660000     -32.23270000     -71.22160000
H      -48.69910000     -33.03750000     -71.47580000
C      -45.19350000     -31.64600000     -69.54530000
H      -46.07340000     -31.10650000     -69.96350000
H      -44.81590000     -30.98200000     -68.74060000
C      -45.54500000     -32.95320000     -68.79060000
C      -44.91100000     -33.23950000     -67.59600000
C      -46.44670000     -33.97410000     -69.20940000
H      -44.15850000     -32.58680000     -67.17860000
C      -46.50490000     -35.01250000     -68.24830000
C      -47.42710000     -34.12520000     -70.19800000
C      -48.10550000     -35.31120000     -70.06190000
S      -45.31160000     -34.86600000     -66.94680000
S      -47.61620000     -36.29120000     -68.67990000
H      -48.96880000     -35.51260000     -70.64140000
