40
Properties=species:S:1:pos:R:3 #=T CELL(abcABC):=T 1.889726e+02=T 90.00000=T Traj:=T positionsangstrom=T Step:=T 0=T Bead:=T pbc="F F F"
C      -44.04610000     -34.16480000     -74.91810000
C      -44.78280000     -32.94180000     -74.77640000
C      -44.15700000     -31.87820000     -74.14140000
C      -42.87760000     -32.02730000     -73.62460000
C      -42.14290000     -33.19360000     -73.78630000
C      -42.70930000     -34.27950000     -74.48640000
H      -44.46110000     -34.92210000     -75.57620000
H      -44.68430000     -30.88990000     -74.12560000
H      -41.05150000     -33.20800000     -73.47030000
H      -42.12650000     -35.15790000     -74.67570000
C      -42.31200000     -30.95970000     -72.75890000
H      -42.10090000     -30.05540000     -73.26540000
H      -41.37450000     -31.24170000     -72.24950000
C      -46.20490000     -32.82070000     -75.30770000
H      -46.32120000     -32.07330000     -76.08950000
H      -46.53240000     -33.79700000     -75.64950000
S      -43.57050000     -30.45280000     -71.49640000
S      -47.37360000     -32.37640000     -73.91810000
C      -43.73720000     -32.01570000     -70.55870000
H      -44.02840000     -32.80410000     -71.22770000
H      -42.79830000     -32.24270000     -70.05320000
C      -46.76010000     -33.37130000     -72.50250000
H      -45.73760000     -33.15530000     -72.34050000
H      -46.79690000     -34.43540000     -72.79420000
C      -47.61610000     -33.19310000     -71.25960000
H      -47.40330000     -32.18860000     -70.86690000
H      -48.70090000     -33.19010000     -71.55450000
C      -44.98840000     -31.96770000     -69.54130000
H      -45.89410000     -31.76730000     -70.04630000
H      -44.81530000     -31.17250000     -68.84350000
C      -45.18760000     -33.27890000     -68.80040000
C      -44.47500000     -33.79710000     -67.76050000
C      -46.31100000     -34.14440000     -69.20010000
H      -43.55970000     -33.38920000     -67.40500000
C      -46.30350000     -35.28710000     -68.38890000
C      -47.39910000     -34.19330000     -70.18760000
C      -48.11520000     -35.37010000     -70.05110000
S      -44.96520000     -35.33560000     -67.23810000
S      -47.60150000     -36.40300000     -68.74550000
H      -48.91920000     -35.72100000     -70.66530000
