40
Properties=species:S:1:pos:R:3 #=T CELL(abcABC):=T 1.889726e+02=T 90.00000=T Traj:=T positionsangstrom=T Step:=T 0=T Bead:=T pbc="F F F"
C      -44.52880000     -33.75310000     -74.58550000
C      -45.08370000     -32.47180000     -74.52050000
C      -44.28660000     -31.34420000     -74.10510000
C      -43.01560000     -31.58610000     -73.42940000
C      -42.48130000     -32.87970000     -73.58570000
C      -43.24100000     -33.90760000     -74.09790000
H      -45.03840000     -34.64030000     -74.96630000
H      -44.89780000     -30.49470000     -73.95460000
H      -41.50190000     -33.09790000     -73.13350000
H      -42.67640000     -34.87230000     -74.02460000
C      -42.19680000     -30.62820000     -72.48790000
H      -42.25500000     -29.54520000     -72.94060000
H      -41.12800000     -30.92880000     -72.47780000
C      -46.41880000     -32.16890000     -75.12360000
H      -46.45530000     -31.17040000     -75.52020000
H      -46.55840000     -32.90090000     -75.91450000
S      -43.01240000     -30.55080000     -70.74700000
S      -47.83000000     -31.97300000     -73.90240000
C      -43.31540000     -32.30670000     -70.28560000
H      -43.36340000     -32.97850000     -71.15780000
H      -42.45250000     -32.62020000     -69.61840000
C      -47.72870000     -33.44580000     -72.80330000
H      -47.09390000     -34.19460000     -73.28150000
H      -48.70730000     -33.93340000     -72.63000000
C      -47.07200000     -33.09770000     -71.50650000
H      -46.05270000     -32.77230000     -71.75320000
H      -47.56230000     -32.28030000     -71.03390000
C      -44.69430000     -32.33700000     -69.48020000
H      -45.55140000     -32.05420000     -70.11190000
H      -44.68600000     -31.63300000     -68.64340000
C      -44.97560000     -33.65400000     -68.91230000
C      -44.18250000     -34.35920000     -68.04840000
C      -46.03270000     -34.50420000     -69.47930000
H      -43.39590000     -33.89810000     -67.43690000
C      -46.11360000     -35.67490000     -68.72370000
C      -47.09160000     -34.28580000     -70.50860000
C      -47.92060000     -35.41570000     -70.48410000
S      -44.96560000     -35.89270000     -67.51920000
S      -47.58030000     -36.61010000     -69.22300000
H      -48.80200000     -35.46920000     -71.11440000
