40
Properties=species:S:1:pos:R:3 #=T CELL(abcABC):=T 1.889726e+02=T 90.00000=T Traj:=T positionsangstrom=T Step:=T 0=T Bead:=T pbc="F F F"
C      -48.03220000     -31.40680000     -71.07200000
C      -48.06910000     -32.32040000     -70.07220000
C      -47.23410000     -32.19610000     -68.95900000
C      -46.36590000     -31.09400000     -68.94310000
C      -46.23060000     -30.22100000     -69.96450000
C      -47.13300000     -30.28350000     -71.05590000
H      -48.81150000     -31.45640000     -71.81880000
H      -47.18600000     -32.83810000     -68.17360000
H      -45.50300000     -29.38780000     -69.77580000
H      -47.10730000     -29.56230000     -71.81520000
C      -45.40260000     -30.87190000     -67.81300000
H      -45.75280000     -31.16460000     -66.83030000
H      -45.02050000     -29.82600000     -67.81740000
C      -49.11520000     -33.45300000     -70.16490000
H      -50.05430000     -33.43200000     -69.61610000
H      -49.53500000     -33.38920000     -71.17770000
S      -43.88120000     -31.96700000     -68.00520000
S      -48.32600000     -35.16500000     -70.08340000
C      -43.53250000     -31.88590000     -69.79180000
H      -43.90830000     -31.01400000     -70.30060000
H      -42.43490000     -31.78490000     -69.84350000
C      -47.21190000     -34.91130000     -71.51380000
H      -47.00400000     -33.85560000     -71.36370000
H      -47.73910000     -34.97370000     -72.47900000
C      -45.90970000     -35.67460000     -71.47130000
H      -45.45950000     -35.23920000     -70.61080000
H      -45.96270000     -36.70850000     -71.08570000
C      -44.10540000     -33.07790000     -70.48680000
H      -45.20640000     -32.91330000     -70.44890000
H      -43.98320000     -33.99100000     -69.98360000
C      -43.67080000     -33.34440000     -71.94190000
C      -42.76140000     -32.59130000     -72.66990000
C      -44.14150000     -34.42150000     -72.82510000
H      -42.35060000     -31.63450000     -72.40780000
C      -43.48360000     -34.47570000     -74.05040000
C      -45.02950000     -35.61490000     -72.64230000
C      -44.95490000     -36.47480000     -73.67610000
S      -42.29300000     -33.18770000     -74.28410000
S      -43.75120000     -35.98740000     -74.86110000
H      -45.53760000     -37.30920000     -73.85230000
