40
Properties=species:S:1:pos:R:3 #=T CELL(abcABC):=T 1.889726e+02=T 90.00000=T Traj:=T positionsangstrom=T Step:=T 0=T Bead:=T pbc="F F F"
C      -48.45450000     -30.65240000     -70.91280000
C      -48.28540000     -31.81860000     -70.07040000
C      -47.13740000     -31.86330000     -69.21520000
C      -46.14300000     -30.86540000     -69.17880000
C      -46.25710000     -29.81390000     -70.16220000
C      -47.42920000     -29.70020000     -70.90650000
H      -49.34570000     -30.55890000     -71.52920000
H      -47.19550000     -32.66340000     -68.52470000
H      -45.32750000     -29.34870000     -70.38930000
H      -47.58220000     -28.80300000     -71.56940000
C      -45.00670000     -30.86520000     -68.20610000
H      -45.36870000     -30.65750000     -67.24220000
H      -44.24780000     -30.14510000     -68.52060000
C      -49.12820000     -32.99860000     -70.13190000
H      -49.80880000     -33.07930000     -69.25350000
H      -49.65810000     -32.97970000     -71.10840000
S      -44.15960000     -32.53870000     -67.82390000
S      -48.20280000     -34.69320000     -70.18830000
C      -43.12330000     -32.83490000     -69.36620000
H      -42.47990000     -32.00010000     -69.65430000
H      -42.49570000     -33.64750000     -69.19430000
C      -47.31570000     -34.73270000     -71.83540000
H      -46.78570000     -33.75830000     -71.80520000
H      -47.91770000     -34.79950000     -72.70320000
C      -46.18910000     -35.81280000     -71.63760000
H      -45.83540000     -35.79180000     -70.62470000
H      -46.66120000     -36.77040000     -71.68380000
C      -44.05900000     -33.35020000     -70.46950000
H      -44.95190000     -32.63470000     -70.70070000
H      -44.56580000     -34.22950000     -69.93260000
C      -43.51770000     -33.66270000     -71.82810000
C      -42.47720000     -32.93810000     -72.37600000
C      -44.00250000     -34.68660000     -72.74530000
H      -41.96420000     -32.18080000     -71.90090000
C      -43.31950000     -34.64840000     -74.00370000
C      -45.08490000     -35.64160000     -72.67660000
C      -45.21100000     -36.29980000     -73.86070000
S      -41.97480000     -33.60830000     -73.94120000
S      -44.01990000     -35.87290000     -75.07180000
H      -45.89510000     -37.02640000     -74.10570000
