40
Properties=species:S:1:pos:R:3 #=T CELL(abcABC):=T 1.889726e+02=T 90.00000=T Traj:=T positionsangstrom=T Step:=T 0=T Bead:=T pbc="F F F"
C      -48.29300000     -30.79090000     -71.07220000
C      -48.23790000     -31.84520000     -70.06680000
C      -47.17410000     -31.89210000     -69.13580000
C      -46.21360000     -30.86080000     -69.14510000
C      -46.34960000     -29.79090000     -70.03540000
C      -47.31320000     -29.79330000     -71.03740000
H      -49.09690000     -30.92830000     -71.82590000
H      -47.02870000     -32.84260000     -68.53520000
H      -45.85120000     -28.85470000     -69.83310000
H      -47.40740000     -29.02110000     -71.77700000
C      -45.04540000     -30.86700000     -68.17930000
H      -45.36750000     -30.49490000     -67.20090000
H      -44.34670000     -29.98190000     -68.46990000
C      -49.20790000     -33.04080000     -70.10650000
H      -49.78050000     -33.10710000     -69.19260000
H      -49.97670000     -32.89410000     -70.82500000
S      -44.28520000     -32.48980000     -67.89240000
S      -48.29660000     -34.65110000     -70.09150000
C      -43.31930000     -32.85650000     -69.44380000
H      -42.86320000     -31.89900000     -69.58140000
H      -42.53680000     -33.70870000     -69.24790000
C      -47.14340000     -34.39620000     -71.53170000
H      -46.55060000     -33.45390000     -71.32500000
H      -47.63490000     -34.33880000     -72.54500000
C      -46.23910000     -35.62870000     -71.66560000
H      -45.83750000     -35.96330000     -70.73220000
H      -46.86740000     -36.44860000     -72.09180000
C      -44.16430000     -33.25220000     -70.61060000
H      -44.75350000     -32.45060000     -70.91760000
H      -44.90560000     -34.00900000     -70.34770000
C      -43.42690000     -33.72520000     -71.80720000
C      -42.20460000     -33.28870000     -72.27590000
C      -44.01090000     -34.72400000     -72.73980000
H      -41.51500000     -32.62860000     -71.78500000
C      -43.23230000     -34.83310000     -73.88520000
C      -45.15140000     -35.56370000     -72.77270000
C      -45.34570000     -36.15070000     -74.04610000
S      -41.83290000     -33.72700000     -73.93950000
S      -43.95570000     -35.84500000     -75.10580000
H      -46.16140000     -36.68210000     -74.39460000
