40
Properties=species:S:1:pos:R:3 #=T CELL(abcABC):=T 1.889726e+02=T 90.00000=T Traj:=T positionsangstrom=T Step:=T 0=T Bead:=T pbc="F F F"
C      -43.88510000     -35.03680000     -67.49290000
C      -44.19790000     -35.26670000     -68.81570000
C      -44.10640000     -34.18930000     -69.69360000
C      -43.62000000     -32.89530000     -69.37290000
C      -43.38260000     -32.61820000     -67.99690000
C      -43.45200000     -33.74230000     -67.14130000
H      -43.95220000     -35.90390000     -66.80210000
H      -44.50810000     -34.44300000     -70.69550000
H      -42.98820000     -31.74260000     -67.52080000
H      -43.33270000     -33.40290000     -66.08420000
C      -43.66720000     -31.77300000     -70.38790000
H      -43.92840000     -32.12200000     -71.35500000
H      -42.71410000     -31.09810000     -70.35770000
C      -44.61600000     -36.62830000     -69.26750000
H      -43.93370000     -37.45270000     -69.07710000
H      -45.57660000     -36.84940000     -68.76320000
S      -45.02280000     -30.55420000     -69.85430000
S      -45.04320000     -36.70050000     -71.03630000
C      -46.62200000     -31.52070000     -69.74620000
H      -46.32520000     -32.57330000     -69.69540000
H      -47.04910000     -31.10460000     -68.85840000
C      -46.84330000     -36.38360000     -71.10590000
H      -47.44940000     -36.65120000     -70.20120000
H      -47.16680000     -37.02050000     -71.89350000
C      -47.18750000     -34.93040000     -71.34030000
H      -48.27700000     -34.90030000     -71.31260000
H      -46.97270000     -34.31140000     -70.42390000
C      -47.50280000     -31.50350000     -70.98780000
H      -48.13100000     -30.59900000     -70.91090000
H      -48.24590000     -32.36750000     -70.99410000
C      -46.69310000     -31.61380000     -72.27750000
C      -46.02660000     -30.53090000     -72.83530000
C      -46.34310000     -32.89390000     -72.89230000
H      -46.26340000     -29.44740000     -72.67550000
C      -45.57090000     -32.65890000     -74.04420000
C      -46.63510000     -34.29940000     -72.66610000
C      -46.34380000     -35.00660000     -73.81680000
S      -45.12850000     -30.99070000     -74.26410000
S      -45.34950000     -34.07410000     -75.03310000
H      -46.59160000     -36.04920000     -73.98880000
