40
Properties=species:S:1:pos:R:3 #=T CELL(abcABC):=T 1.889726e+02=T 90.00000=T Traj:=T positionsangstrom=T Step:=T 0=T Bead:=T pbc="F F F"
C      -43.76400000     -34.86710000     -67.48760000
C      -44.26660000     -35.08430000     -68.78660000
C      -44.03750000     -34.08830000     -69.72630000
C      -43.68910000     -32.72170000     -69.39620000
C      -43.37900000     -32.48440000     -68.02350000
C      -43.29350000     -33.57090000     -67.16440000
H      -43.76310000     -35.72110000     -66.81190000
H      -44.36430000     -34.21990000     -70.74230000
H      -43.16000000     -31.49610000     -67.67240000
H      -42.85400000     -33.39530000     -66.14830000
C      -43.75550000     -31.66490000     -70.46820000
H      -44.20750000     -32.03960000     -71.35700000
H      -42.80310000     -31.24360000     -70.85220000
C      -44.71470000     -36.50980000     -69.14230000
H      -43.85280000     -37.19100000     -68.93730000
H      -45.48950000     -36.83820000     -68.51130000
S      -44.96730000     -30.35670000     -69.79720000
S      -45.15130000     -36.89500000     -70.84880000
C      -46.50130000     -31.33650000     -69.64840000
H      -46.20980000     -32.34930000     -69.32600000
H      -47.11240000     -30.98650000     -68.77950000
C      -47.01290000     -36.45450000     -71.18960000
H      -47.60030000     -36.75220000     -70.29560000
H      -47.30750000     -37.17340000     -72.00740000
C      -47.45950000     -35.06670000     -71.71870000
H      -48.45580000     -35.27680000     -72.12060000
H      -47.54220000     -34.33560000     -70.90080000
C      -47.42880000     -31.51200000     -70.89940000
H      -48.09820000     -30.64160000     -71.07150000
H      -48.15240000     -32.26440000     -70.55870000
C      -46.77370000     -31.75140000     -72.27290000
C      -46.21830000     -30.64460000     -72.87960000
C      -46.37250000     -33.01190000     -72.92440000
H      -46.21650000     -29.58060000     -72.52230000
C      -45.66900000     -32.76130000     -74.13340000
C      -46.55740000     -34.43240000     -72.77640000
C      -45.91810000     -35.14600000     -73.76800000
S      -45.32610000     -31.04190000     -74.34730000
S      -45.06730000     -34.17980000     -74.96730000
H      -45.85410000     -36.19680000     -73.97090000
