40
Properties=species:S:1:pos:R:3 #=T CELL(abcABC):=T 1.889726e+02=T 90.00000=T Traj:=T positionsangstrom=T Step:=T 0=T Bead:=T pbc="F F F"
C      -46.20310000     -32.66210000     -74.75160000
C      -45.93280000     -31.45590000     -74.04850000
C      -44.63440000     -31.15600000     -73.70280000
C      -43.62180000     -32.12110000     -73.86410000
C      -43.85240000     -33.32630000     -74.48130000
C      -45.12130000     -33.55460000     -75.02970000
H      -47.22840000     -32.96100000     -74.96060000
H      -44.36540000     -30.18610000     -73.27570000
H      -43.03980000     -34.01330000     -74.49700000
H      -45.22840000     -34.48050000     -75.57230000
C      -42.22550000     -31.89140000     -73.30770000
H      -41.86650000     -30.86100000     -73.53200000
H      -41.57740000     -32.66040000     -73.70740000
C      -47.05210000     -30.51550000     -73.70370000
H      -47.13720000     -29.52950000     -74.14820000
H      -48.01670000     -31.04240000     -73.95490000
S      -42.15330000     -31.91020000     -71.46860000
S      -47.11330000     -30.05840000     -71.89890000
C      -42.92890000     -33.58770000     -71.07950000
H      -43.82990000     -33.67020000     -71.77630000
H      -42.24700000     -34.47300000     -71.26500000
C      -47.66940000     -31.56740000     -71.12850000
H      -48.41530000     -32.12710000     -71.71720000
H      -48.29990000     -31.28590000     -70.20590000
C      -46.52380000     -32.39230000     -70.60950000
H      -45.72870000     -32.56590000     -71.32010000
H      -45.97050000     -31.81830000     -69.78470000
C      -43.33480000     -33.52510000     -69.63050000
H      -43.97300000     -32.66270000     -69.51870000
H      -42.43290000     -33.49090000     -68.91850000
C      -44.17980000     -34.70890000     -69.37720000
C      -43.67770000     -35.96530000     -69.14090000
C      -45.66630000     -34.74650000     -69.60100000
H      -42.61540000     -36.18010000     -69.09550000
C      -46.16090000     -35.95910000     -69.25210000
C      -46.75620000     -33.84590000     -70.06580000
C      -47.98690000     -34.36320000     -69.73900000
S      -44.95860000     -37.19800000     -68.81190000
S      -47.89470000     -36.08550000     -69.16600000
H      -49.04220000     -33.98230000     -69.81460000
