40
Properties=species:S:1:pos:R:3 #=T CELL(abcABC):=T 1.889726e+02=T 90.00000=T Traj:=T positionsangstrom=T Step:=T 0=T Bead:=T pbc="F F F"
C      -43.52700000     -34.58480000     -67.31240000
C      -44.23420000     -34.96100000     -68.45030000
C      -44.36460000     -34.06200000     -69.52660000
C      -43.73390000     -32.79460000     -69.56110000
C      -42.82100000     -32.57530000     -68.50060000
C      -42.75100000     -33.41320000     -67.40730000
H      -43.45270000     -35.19340000     -66.49300000
H      -44.83050000     -34.49580000     -70.43740000
H      -42.25440000     -31.70660000     -68.42040000
H      -42.04490000     -33.25290000     -66.55640000
C      -43.89790000     -31.71470000     -70.54900000
H      -44.09250000     -32.18910000     -71.53030000
H      -43.02250000     -31.10060000     -70.50740000
C      -45.06590000     -36.24850000     -68.62060000
H      -44.54920000     -37.18420000     -68.24330000
H      -46.01850000     -36.17070000     -68.05330000
S      -45.26520000     -30.59690000     -70.26840000
S      -45.36060000     -36.80570000     -70.38070000
C      -46.72260000     -31.70160000     -70.07800000
H      -46.34990000     -32.73440000     -69.98810000
H      -47.23030000     -31.41780000     -69.18830000
C      -47.07470000     -36.32800000     -70.92870000
H      -47.61170000     -36.47020000     -69.99320000
H      -47.44820000     -37.08910000     -71.65130000
C      -47.24300000     -34.86610000     -71.43830000
H      -48.25470000     -34.66310000     -71.78840000
H      -47.03890000     -34.26510000     -70.56930000
C      -47.74740000     -31.69690000     -71.29850000
H      -48.42240000     -30.82020000     -71.32090000
H      -48.43560000     -32.58440000     -71.23880000
C      -46.99220000     -31.67770000     -72.59530000
C      -46.50270000     -30.62740000     -73.37700000
C      -46.34240000     -32.88320000     -72.99250000
H      -46.85970000     -29.54130000     -73.33430000
C      -45.54340000     -32.80830000     -74.12420000
C      -46.42010000     -34.28500000     -72.56250000
C      -45.54470000     -35.11150000     -73.32740000
S      -45.37060000     -31.17520000     -74.74540000
S      -44.61640000     -34.20610000     -74.47660000
H      -45.29030000     -36.10310000     -73.20740000
