40
Properties=species:S:1:pos:R:3 #=T CELL(abcABC):=T 1.889726e+02=T 90.00000=T Traj:=T positionsangstrom=T Step:=T 0=T Bead:=T pbc="F F F"
C      -46.76380000     -31.79810000     -74.08090000
C      -45.90400000     -30.68990000     -73.58720000
C      -44.54560000     -30.92050000     -73.56090000
C      -43.95150000     -32.13160000     -74.03290000
C      -44.82840000     -33.12100000     -74.51310000
C      -46.21800000     -32.97430000     -74.50670000
H      -47.87470000     -31.67340000     -74.19160000
H      -43.95740000     -30.09910000     -73.16430000
H      -44.47240000     -34.09570000     -74.79740000
H      -46.89620000     -33.79930000     -74.93170000
C      -42.46770000     -32.42910000     -73.96820000
H      -41.82900000     -31.67110000     -74.35440000
H      -42.15490000     -33.36600000     -74.48540000
C      -46.52810000     -29.54120000     -72.91140000
H      -45.98120000     -28.56020000     -72.97330000
H      -47.50480000     -29.34110000     -73.32920000
S      -41.99920000     -32.59920000     -72.13030000
S      -46.71710000     -29.76080000     -71.04430000
C      -42.83830000     -34.17160000     -71.62950000
H      -43.76880000     -34.23130000     -72.16560000
H      -42.31030000     -34.99490000     -72.03210000
C      -47.26810000     -31.53910000     -70.85320000
H      -47.98400000     -31.82690000     -71.61660000
H      -47.83820000     -31.51530000     -69.89310000
C      -46.08200000     -32.52760000     -70.74090000
H      -45.49910000     -32.68020000     -71.60750000
H      -45.30470000     -32.09290000     -70.03170000
C      -43.07860000     -34.14410000     -70.15840000
H      -43.28660000     -33.18070000     -69.88340000
H      -42.16870000     -34.39610000     -69.75290000
C      -44.13560000     -35.07170000     -69.70600000
C      -43.73810000     -36.22450000     -69.08240000
C      -45.58920000     -34.98450000     -69.87220000
H      -42.72470000     -36.50480000     -69.01580000
C      -46.27160000     -36.07940000     -69.37520000
C      -46.44690000     -33.89970000     -70.20120000
C      -47.79610000     -34.26720000     -69.99860000
S      -45.10620000     -37.32400000     -68.69180000
S      -47.97710000     -35.89040000     -69.34330000
H      -48.64680000     -33.58320000     -69.98830000
