40
Properties=species:S:1:pos:R:3 #=T CELL(abcABC):=T 1.889726e+02=T 90.00000=T Traj:=T positionsangstrom=T Step:=T 0=T Bead:=T pbc="F F F"
C      -46.85710000     -31.52970000     -74.35710000
C      -46.12820000     -30.74520000     -73.44650000
C      -44.74060000     -31.03230000     -73.25470000
C      -44.05870000     -32.07020000     -73.95850000
C      -44.87390000     -32.78690000     -74.81660000
C      -46.21080000     -32.57020000     -75.10110000
H      -47.90960000     -31.40330000     -74.48610000
H      -44.12670000     -30.37030000     -72.61900000
H      -44.46630000     -33.69540000     -75.37790000
H      -46.72840000     -33.26210000     -75.76530000
C      -42.52720000     -32.25430000     -73.91540000
H      -41.98820000     -31.31780000     -74.13990000
H      -42.12730000     -33.05160000     -74.50880000
C      -46.81760000     -29.63710000     -72.69020000
H      -46.33160000     -28.71380000     -72.97980000
H      -47.92050000     -29.52610000     -72.92730000
S      -42.03570000     -32.63850000     -72.24330000
S      -46.64250000     -29.72840000     -70.81140000
C      -43.25540000     -34.03800000     -71.81010000
H      -44.27160000     -33.79380000     -72.02760000
H      -43.11250000     -34.96100000     -72.34610000
C      -47.14800000     -31.51970000     -70.64820000
H      -47.60670000     -31.75680000     -71.64910000
H      -47.95350000     -31.48310000     -69.92970000
C      -46.02890000     -32.44030000     -70.17120000
H      -45.09150000     -32.37230000     -70.76590000
H      -45.82070000     -32.06360000     -69.15600000
C      -42.97910000     -34.26510000     -70.28400000
H      -42.97140000     -33.30220000     -69.80270000
H      -41.95050000     -34.52980000     -70.17430000
C      -43.99200000     -35.21110000     -69.74910000
C      -43.63380000     -36.46920000     -69.37360000
C      -45.45550000     -34.93430000     -69.73350000
H      -42.65020000     -36.87130000     -69.20970000
C      -46.07740000     -36.11100000     -69.37580000
C      -46.41470000     -33.89140000     -69.88470000
C      -47.71080000     -34.33490000     -69.74690000
S      -45.08460000     -37.45740000     -68.96060000
S      -47.82210000     -36.04820000     -69.37840000
H      -48.53990000     -33.69420000     -69.99970000
