40
Properties=species:S:1:pos:R:3 #=T CELL(abcABC):=T 1.889726e+02=T 90.00000=T Traj:=T positionsangstrom=T Step:=T 0=T Bead:=T pbc="F F F"
C      -46.96990000     -31.51760000     -74.36090000
C      -46.23250000     -30.74520000     -73.51610000
C      -44.87890000     -31.02280000     -73.29590000
C      -44.16240000     -31.89070000     -74.11070000
C      -44.88860000     -32.58120000     -75.01070000
C      -46.24740000     -32.39950000     -75.17420000
H      -47.99820000     -31.32600000     -74.63230000
H      -44.34890000     -30.42110000     -72.53710000
H      -44.36070000     -33.24500000     -75.70240000
H      -46.76950000     -32.90170000     -76.01040000
C      -42.67640000     -32.05250000     -74.02600000
H      -42.12640000     -31.15080000     -74.17100000
H      -42.33890000     -32.70260000     -74.87920000
C      -46.84480000     -29.70160000     -72.63100000
H      -46.48000000     -28.71420000     -72.97790000
H      -47.90310000     -29.67700000     -72.86130000
S      -41.99760000     -32.67880000     -72.33740000
S      -46.52680000     -29.87120000     -70.84730000
C      -43.11560000     -33.91920000     -71.68060000
H      -44.17180000     -33.71170000     -72.14270000
H      -42.80630000     -34.82660000     -72.24850000
C      -47.08890000     -31.59240000     -70.30250000
H      -47.53790000     -32.06710000     -71.21890000
H      -47.86000000     -31.59200000     -69.55570000
C      -45.93750000     -32.54080000     -69.95250000
H      -45.20150000     -32.50670000     -70.74390000
H      -45.34460000     -32.17910000     -69.09740000
C      -43.09850000     -34.01630000     -70.14350000
H      -43.46270000     -33.08930000     -69.65060000
H      -42.10410000     -34.23700000     -69.78490000
C      -44.05380000     -35.17910000     -69.67970000
C      -43.59750000     -36.46760000     -69.50900000
C      -45.50980000     -35.08950000     -69.65830000
H      -42.54260000     -36.79900000     -69.58730000
C      -46.12600000     -36.32900000     -69.43470000
C      -46.40060000     -33.93040000     -69.73840000
C      -47.68890000     -34.30120000     -69.56030000
S      -44.91870000     -37.55650000     -69.16370000
S      -47.90350000     -36.01980000     -69.25500000
H      -48.54610000     -33.67010000     -69.73380000
