40
Properties=species:S:1:pos:R:3 #=T CELL(abcABC):=T 1.889726e+02=T 90.00000=T Traj:=T positionsangstrom=T Step:=T 0=T Bead:=T pbc="F F F"
C      -47.40330000     -31.91750000     -73.72810000
C      -46.61530000     -30.90520000     -73.19570000
C      -45.25360000     -30.89630000     -73.43210000
C      -44.61380000     -31.88740000     -74.17050000
C      -45.39280000     -32.89500000     -74.72570000
C      -46.77330000     -32.87440000     -74.52450000
H      -48.44910000     -31.85120000     -73.62230000
H      -44.63900000     -30.18030000     -72.91870000
H      -44.92270000     -33.73840000     -75.26030000
H      -47.36730000     -33.64940000     -75.10020000
C      -43.12330000     -32.02390000     -74.32980000
H      -42.75410000     -31.03040000     -74.70260000
H      -42.85750000     -32.86360000     -75.01910000
C      -47.33430000     -29.88580000     -72.28180000
H      -47.09320000     -28.89460000     -72.47250000
H      -48.43430000     -29.99400000     -72.15020000
S      -42.38440000     -32.29520000     -72.70140000
S      -46.64450000     -29.81610000     -70.59100000
C      -43.09380000     -33.89820000     -72.28930000
H      -44.22380000     -33.87700000     -72.40170000
H      -42.65480000     -34.64430000     -72.90030000
C      -46.94670000     -31.54950000     -70.07880000
H      -47.81040000     -31.89340000     -70.65550000
H      -47.22070000     -31.56790000     -69.01170000
C      -45.77960000     -32.52490000     -70.29550000
H      -45.34760000     -32.60750000     -71.33130000
H      -44.86920000     -32.14420000     -69.80710000
C      -42.85130000     -34.20060000     -70.79700000
H      -42.84050000     -33.22440000     -70.32150000
H      -41.86370000     -34.63920000     -70.77090000
C      -43.72450000     -35.22950000     -70.22840000
C      -43.35500000     -36.53450000     -70.07990000
C      -45.07430000     -34.99140000     -69.85100000
H      -42.32370000     -36.85790000     -70.19470000
C      -45.67990000     -36.13510000     -69.34970000
C      -46.04120000     -33.86240000     -69.76990000
C      -47.23530000     -34.25110000     -69.27210000
S      -44.64740000     -37.46170000     -69.32530000
S      -47.32120000     -36.03260000     -68.75180000
H      -48.12130000     -33.59310000     -69.00430000
