40
Properties=species:S:1:pos:R:3 #=T CELL(abcABC):=T 1.889726e+02=T 90.00000=T Traj:=T positionsangstrom=T Step:=T 0=T Bead:=T pbc="F F F"
C      -47.74200000     -31.99070000     -73.31430000
C      -46.88230000     -30.87390000     -73.18840000
C      -45.49010000     -31.06230000     -73.54380000
C      -45.02310000     -32.32090000     -74.07690000
C      -45.93860000     -33.39230000     -74.16920000
C      -47.27310000     -33.13770000     -73.91700000
H      -48.76750000     -31.90080000     -72.97820000
H      -44.72110000     -30.27850000     -73.29520000
H      -45.55060000     -34.31890000     -74.55640000
H      -47.96330000     -33.93410000     -73.98170000
C      -43.56800000     -32.48900000     -74.46840000
H      -43.26720000     -31.73160000     -75.25860000
H      -43.37000000     -33.52740000     -74.85990000
C      -47.19910000     -29.70920000     -72.31940000
H      -47.10000000     -28.76020000     -72.87770000
H      -48.23520000     -29.85890000     -72.08460000
S      -42.44110000     -32.25120000     -73.05630000
S      -46.23650000     -29.75680000     -70.64690000
C      -42.85030000     -33.84910000     -72.23020000
H      -43.79290000     -34.07230000     -72.65900000
H      -42.16480000     -34.67740000     -72.63490000
C      -46.75060000     -31.36110000     -69.99310000
H      -47.71760000     -31.70370000     -70.43640000
H      -46.83830000     -31.22350000     -68.91640000
C      -45.63890000     -32.36890000     -70.16470000
H      -45.34680000     -32.52970000     -71.21050000
H      -44.70660000     -32.02140000     -69.66270000
C      -42.71490000     -33.96370000     -70.67970000
H      -42.87510000     -32.99590000     -70.21580000
H      -41.69680000     -34.18730000     -70.46900000
C      -43.70570000     -35.04780000     -70.24410000
C      -43.23910000     -36.34570000     -70.32980000
C      -45.03870000     -34.86890000     -69.69840000
H      -42.38190000     -36.69390000     -70.87150000
C      -45.56330000     -36.15420000     -69.32710000
C      -45.99810000     -33.75250000     -69.62610000
C      -47.20470000     -34.20830000     -69.22860000
S      -44.40140000     -37.42470000     -69.52530000
S      -47.32070000     -35.98700000     -68.89110000
H      -48.09500000     -33.58300000     -69.22760000
