40
Properties=species:S:1:pos:R:3 #=T CELL(abcABC):=T 1.889726e+02=T 90.00000=T Traj:=T positionsangstrom=T Step:=T 0=T Bead:=T pbc="F F F"
C      -47.64380000     -32.06380000     -73.07870000
C      -46.69920000     -31.03550000     -72.88630000
C      -45.35020000     -31.21290000     -73.34130000
C      -45.02000000     -32.30890000     -74.13110000
C      -46.04290000     -33.27520000     -74.35620000
C      -47.28750000     -33.14380000     -73.81540000
H      -48.53410000     -32.06290000     -72.52850000
H      -44.64920000     -30.42380000     -73.20930000
H      -45.71910000     -34.18500000     -74.88430000
H      -48.03480000     -33.90970000     -73.90550000
C      -43.66320000     -32.52330000     -74.75940000
H      -43.18160000     -31.60800000     -75.16500000
H      -43.70000000     -33.23710000     -75.56400000
C      -47.07130000     -29.77190000     -72.19890000
H      -46.74370000     -28.94010000     -72.84910000
H      -48.15420000     -29.71900000     -72.09930000
S      -42.29320000     -32.88830000     -73.48760000
S      -46.28370000     -29.61810000     -70.55230000
C      -43.03380000     -34.20640000     -72.45120000
H      -44.08240000     -34.28470000     -72.65090000
H      -42.72860000     -35.22380000     -72.71480000
C      -46.74230000     -31.29030000     -69.86610000
H      -47.60050000     -31.51890000     -70.45400000
H      -47.16410000     -31.20640000     -68.87200000
C      -45.59930000     -32.25050000     -70.18420000
H      -45.43090000     -32.22240000     -71.27020000
H      -44.69970000     -31.95940000     -69.61940000
C      -42.85390000     -33.96780000     -70.94730000
H      -42.95690000     -32.87760000     -70.81350000
H      -41.79470000     -34.26790000     -70.75420000
C      -43.71570000     -34.89440000     -70.15010000
C      -43.25590000     -36.12800000     -69.74960000
C      -45.09680000     -34.76790000     -69.93790000
H      -42.19580000     -36.36890000     -69.75120000
C      -45.63030000     -35.97580000     -69.45780000
C      -46.00810000     -33.67600000     -69.74810000
C      -47.27450000     -34.05100000     -69.28460000
S      -44.48790000     -37.25870000     -69.20340000
S      -47.24600000     -35.80680000     -68.94730000
H      -48.04460000     -33.34870000     -68.91820000
