40
Properties=species:S:1:pos:R:3 #=T CELL(abcABC):=T 1.889726e+02=T 90.00000=T Traj:=T positionsangstrom=T Step:=T 0=T Bead:=T pbc="F F F"
C      -43.55120000     -33.19040000     -67.18920000
C      -43.99790000     -33.98900000     -68.28960000
C      -43.89260000     -33.34380000     -69.50590000
C      -43.35460000     -32.07230000     -69.71160000
C      -42.95040000     -31.33770000     -68.60390000
C      -43.00230000     -31.94620000     -67.35820000
H      -43.37630000     -33.58200000     -66.19270000
H      -44.00200000     -33.98030000     -70.35010000
H      -42.51800000     -30.30410000     -68.77270000
H      -42.70580000     -31.39900000     -66.46300000
C      -43.48890000     -31.49720000     -71.07280000
H      -43.58110000     -32.24920000     -71.85490000
H      -42.61300000     -30.99000000     -71.37610000
C      -44.52230000     -35.38450000     -68.09300000
H      -43.85240000     -35.97370000     -67.52130000
H      -45.48250000     -35.48990000     -67.60090000
S      -44.84080000     -30.21990000     -71.13020000
S      -44.89100000     -36.30850000     -69.62800000
C      -46.34630000     -30.95430000     -70.51230000
H      -46.02610000     -31.76920000     -69.81490000
H      -46.89240000     -30.21740000     -69.92640000
C      -46.68750000     -36.05900000     -69.91340000
H      -47.13830000     -36.12250000     -68.90770000
H      -47.09120000     -36.92750000     -70.49970000
C      -47.00070000     -34.72950000     -70.61460000
H      -48.05360000     -34.45090000     -70.55920000
H      -46.32250000     -33.97540000     -70.21130000
C      -47.35030000     -31.50490000     -71.56270000
H      -47.95820000     -30.62270000     -71.87940000
H      -47.97350000     -32.22440000     -70.99170000
C      -46.78310000     -32.19240000     -72.81950000
C      -46.52660000     -31.50490000     -74.02760000
C      -46.63290000     -33.62810000     -72.96370000
H      -46.66770000     -30.44780000     -74.09190000
C      -46.02710000     -33.93180000     -74.17420000
C      -46.71320000     -34.83210000     -72.11410000
C      -46.39150000     -35.96240000     -72.90680000
S      -45.84600000     -32.56640000     -75.22540000
S      -45.66910000     -35.58610000     -74.43970000
H      -46.37790000     -36.90100000     -72.44340000
