40
Properties=species:S:1:pos:R:3 #=T CELL(abcABC):=T 1.889726e+02=T 90.00000=T Traj:=T positionsangstrom=T Step:=T 0=T Bead:=T pbc="F F F"
C      -43.38830000     -33.22590000     -67.31310000
C      -43.93910000     -34.00670000     -68.38940000
C      -43.95540000     -33.40060000     -69.63780000
C      -43.47620000     -32.07060000     -69.82420000
C      -43.04170000     -31.33540000     -68.72050000
C      -42.88490000     -31.93990000     -67.46550000
H      -43.42220000     -33.58990000     -66.29970000
H      -44.52050000     -33.87890000     -70.38270000
H      -42.72140000     -30.30740000     -68.80950000
H      -42.49130000     -31.55820000     -66.53050000
C      -43.57230000     -31.27520000     -71.13490000
H      -43.68670000     -31.97770000     -72.01950000
H      -42.61170000     -30.71640000     -71.22220000
C      -44.39220000     -35.43820000     -68.07520000
H      -43.50630000     -35.99410000     -67.66330000
H      -45.06030000     -35.30350000     -67.19540000
S      -44.95640000     -30.03600000     -71.09500000
S      -45.04610000     -36.44830000     -69.48880000
C      -46.39330000     -31.17830000     -70.72060000
H      -45.85570000     -32.02970000     -70.45340000
H      -46.93480000     -30.80370000     -69.83620000
C      -46.83440000     -35.89840000     -69.61150000
H      -47.03340000     -35.72630000     -68.58860000
H      -47.51170000     -36.73250000     -69.86070000
C      -47.11130000     -34.71510000     -70.56090000
H      -48.19300000     -34.79030000     -70.78750000
H      -47.10740000     -33.72660000     -69.99250000
C      -47.38660000     -31.36730000     -71.83420000
H      -47.81010000     -30.38770000     -72.10290000
H      -48.18040000     -32.04620000     -71.54660000
C      -46.71160000     -32.14280000     -72.95290000
C      -46.49930000     -31.53150000     -74.16130000
C      -46.40940000     -33.58580000     -72.93350000
H      -46.54530000     -30.47960000     -74.26430000
C      -45.92980000     -34.00620000     -74.18250000
C      -46.42760000     -34.64090000     -71.95590000
C      -45.93470000     -35.83580000     -72.49600000
S      -45.94280000     -32.65930000     -75.37230000
S      -45.63190000     -35.73690000     -74.26180000
H      -46.02850000     -36.78550000     -72.03960000
