40
Properties=species:S:1:pos:R:3 #=T CELL(abcABC):=T 1.889726e+02=T 90.00000=T Traj:=T positionsangstrom=T Step:=T 0=T Bead:=T pbc="F F F"
C      -43.33170000     -33.18150000     -67.36950000
C      -43.80470000     -33.95180000     -68.42320000
C      -43.82690000     -33.35400000     -69.68480000
C      -43.46580000     -32.01600000     -69.87340000
C      -42.94760000     -31.30570000     -68.78490000
C      -42.92770000     -31.85690000     -67.52960000
H      -43.36130000     -33.63870000     -66.33370000
H      -44.21490000     -34.04920000     -70.47850000
H      -42.62070000     -30.28530000     -68.87180000
H      -42.52630000     -31.31730000     -66.65830000
C      -43.72480000     -31.32280000     -71.23750000
H      -44.24690000     -32.09750000     -71.79590000
H      -42.85510000     -30.83890000     -71.76240000
C      -44.35730000     -35.37250000     -68.07470000
H      -43.57300000     -36.07210000     -67.73350000
H      -45.04660000     -35.17710000     -67.28200000
S      -44.97360000     -30.02860000     -71.04680000
S      -45.16070000     -36.33570000     -69.45800000
C      -46.57940000     -30.97100000     -70.62590000
H      -46.31160000     -31.77360000     -69.92970000
H      -47.15860000     -30.16930000     -70.08440000
C      -46.83900000     -35.73800000     -69.64560000
H      -47.35320000     -35.50220000     -68.68210000
H      -47.33750000     -36.56460000     -70.16250000
C      -46.97180000     -34.46480000     -70.56220000
H      -48.03710000     -34.14400000     -70.44530000
H      -46.41560000     -33.61090000     -70.19240000
C      -47.42820000     -31.43020000     -71.90870000
H      -47.80250000     -30.47920000     -72.34490000
H      -48.39020000     -31.88960000     -71.54990000
C      -46.86000000     -32.21910000     -73.00760000
C      -46.63310000     -31.74330000     -74.23410000
C      -46.43020000     -33.63950000     -72.95980000
H      -46.93280000     -30.72790000     -74.48860000
C      -45.87170000     -34.13550000     -74.14490000
C      -46.60890000     -34.71010000     -72.02270000
C      -46.05160000     -35.86610000     -72.47370000
S      -45.92340000     -32.88340000     -75.35740000
S      -45.34950000     -35.80390000     -74.09820000
H      -46.01070000     -36.81430000     -71.92500000
