40
Properties=species:S:1:pos:R:3 #=T CELL(abcABC):=T 1.889726e+02=T 90.00000=T Traj:=T positionsangstrom=T Step:=T 0=T Bead:=T pbc="F F F"
C      -47.36810000     -32.17470000     -74.37520000
C      -46.51070000     -31.33730000     -73.60370000
C      -45.12230000     -31.43060000     -73.74760000
C      -44.63340000     -32.39810000     -74.62640000
C      -45.47990000     -33.11370000     -75.45310000
C      -46.83550000     -32.99690000     -75.34710000
H      -48.48570000     -32.01420000     -74.22710000
H      -44.46990000     -30.80160000     -73.11220000
H      -45.06910000     -33.85760000     -76.09990000
H      -47.51380000     -33.53710000     -76.03570000
C      -43.14900000     -32.57320000     -74.73870000
H      -42.74490000     -31.60030000     -75.05950000
H      -42.95720000     -33.28900000     -75.55260000
C      -47.19630000     -30.23810000     -72.78050000
H      -47.07790000     -29.29420000     -73.35030000
H      -48.29220000     -30.33930000     -72.65120000
S      -42.22100000     -33.05820000     -73.17270000
S      -46.39450000     -29.78150000     -71.16550000
C      -43.47150000     -33.98570000     -72.25280000
H      -44.39920000     -33.32040000     -72.16510000
H      -43.78800000     -34.89780000     -72.72260000
C      -46.80340000     -31.23380000     -70.02890000
H      -47.60590000     -31.84050000     -70.49590000
H      -47.15020000     -30.67720000     -69.13150000
C      -45.58840000     -32.14090000     -69.78350000
H      -45.13100000     -32.27670000     -70.70630000
H      -44.83010000     -31.53130000     -69.24460000
C      -43.02260000     -34.11400000     -70.80340000
H      -43.02590000     -33.20710000     -70.23300000
H      -41.99620000     -34.49920000     -70.67370000
C      -43.93540000     -35.11470000     -70.03700000
C      -43.74220000     -36.48030000     -70.01230000
C      -45.16400000     -34.68040000     -69.26860000
H      -42.89170000     -36.97240000     -70.47900000
C      -45.71800000     -35.73580000     -68.55020000
C      -45.92100000     -33.45590000     -69.12420000
C      -47.05950000     -33.65060000     -68.37190000
S      -44.85750000     -37.28250000     -68.89210000
S      -47.32050000     -35.34780000     -67.87330000
H      -47.73400000     -32.93530000     -68.14400000
