40
Properties=species:S:1:pos:R:3 #=T CELL(abcABC):=T 1.889726e+02=T 90.00000=T Traj:=T positionsangstrom=T Step:=T 0=T Bead:=T pbc="F F F"
C      -47.39090000     -32.02620000     -74.92210000
C      -46.72040000     -31.52080000     -73.79070000
C      -45.36020000     -31.73600000     -73.62710000
C      -44.67720000     -32.52540000     -74.58210000
C      -45.34460000     -33.05930000     -75.68820000
C      -46.68290000     -32.77260000     -75.89110000
H      -48.50680000     -31.91360000     -75.06070000
H      -44.76910000     -31.38990000     -72.77340000
H      -44.79270000     -33.60920000     -76.44220000
H      -47.19390000     -33.12340000     -76.78780000
C      -43.25320000     -32.83760000     -74.57590000
H      -42.61480000     -32.20930000     -75.21420000
H      -43.07610000     -33.85690000     -74.93110000
C      -47.51780000     -30.59140000     -72.79980000
H      -47.93590000     -29.75050000     -73.49490000
H      -48.35030000     -31.20120000     -72.45920000
S      -42.30920000     -32.68260000     -72.94500000
S      -46.68110000     -29.82880000     -71.31780000
C      -42.97100000     -34.16470000     -72.14040000
H      -43.93000000     -34.40700000     -72.51230000
H      -42.36800000     -35.06490000     -72.41310000
C      -46.80000000     -31.21980000     -70.07240000
H      -47.90380000     -31.33420000     -69.96130000
H      -46.54900000     -30.79560000     -69.08760000
C      -45.96340000     -32.42020000     -70.50160000
H      -46.45560000     -32.79530000     -71.37770000
H      -44.98330000     -32.09680000     -70.77360000
C      -42.90900000     -34.27380000     -70.55770000
H      -43.12150000     -33.35100000     -70.02020000
H      -41.92410000     -34.49900000     -70.21630000
C      -43.94580000     -35.18220000     -70.02690000
C      -43.58090000     -36.41670000     -69.58890000
C      -45.18740000     -34.78040000     -69.45270000
H      -42.79150000     -36.99750000     -70.00390000
C      -45.71250000     -35.75660000     -68.57080000
C      -45.93680000     -33.50190000     -69.42160000
C      -46.84570000     -33.50820000     -68.35580000
S      -44.80040000     -37.16830000     -68.54230000
S      -46.98080000     -35.11410000     -67.62050000
H      -47.65910000     -32.86370000     -68.33750000
