40
Properties=species:S:1:pos:R:3 #=T CELL(abcABC):=T 1.889726e+02=T 90.00000=T Traj:=T positionsangstrom=T Step:=T 0=T Bead:=T pbc="F F F"
C      -47.37410000     -32.07780000     -74.92140000
C      -46.61820000     -31.48770000     -73.82960000
C      -45.25550000     -31.50660000     -73.74570000
C      -44.57450000     -32.33450000     -74.68340000
C      -45.30960000     -32.97520000     -75.69960000
C      -46.67880000     -32.77800000     -75.90090000
H      -48.44720000     -31.93150000     -74.99220000
H      -44.73920000     -30.93170000     -73.01680000
H      -44.75740000     -33.67610000     -76.30860000
H      -47.13010000     -33.32490000     -76.76510000
C      -43.12130000     -32.51820000     -74.59160000
H      -42.68970000     -31.62000000     -74.99050000
H      -42.79350000     -33.39060000     -75.19490000
C      -47.51550000     -30.70270000     -72.91390000
H      -47.92960000     -29.93190000     -73.46780000
H      -48.39640000     -31.24670000     -72.56650000
S      -42.40280000     -32.72330000     -72.91550000
S      -46.66050000     -29.93650000     -71.50910000
C      -43.12050000     -34.29490000     -72.26840000
H      -44.17010000     -34.36800000     -72.74240000
H      -42.51500000     -35.08510000     -72.72170000
C      -46.71590000     -31.21770000     -70.20400000
H      -47.74150000     -31.47740000     -69.99150000
H      -46.27090000     -30.74340000     -69.35710000
C      -45.94480000     -32.53180000     -70.44610000
H      -46.10160000     -33.05240000     -71.36190000
H      -44.82910000     -32.21260000     -70.47480000
C      -43.06900000     -34.25750000     -70.71000000
H      -43.28180000     -33.24060000     -70.45930000
H      -41.98680000     -34.43780000     -70.46020000
C      -43.97810000     -35.12150000     -69.96490000
C      -43.56350000     -36.34840000     -69.55010000
C      -45.16290000     -34.69000000     -69.26990000
H      -42.71170000     -36.78020000     -70.00660000
C      -45.55320000     -35.67770000     -68.32240000
C      -46.10540000     -33.56840000     -69.36790000
C      -47.15790000     -33.70970000     -68.44910000
S      -44.68350000     -37.15510000     -68.43070000
S      -47.03330000     -35.19060000     -67.42840000
H      -47.93030000     -32.97370000     -68.24880000
