40
Properties=species:S:1:pos:R:3 #=T CELL(abcABC):=T 1.889726e+02=T 90.00000=T Traj:=T positionsangstrom=T Step:=T 0=T Bead:=T pbc="F F F"
C      -47.31010000     -32.27370000     -74.97370000
C      -46.66200000     -31.56590000     -73.97550000
C      -45.24670000     -31.51910000     -73.91100000
C      -44.50330000     -32.20530000     -74.81420000
C      -45.15130000     -32.95190000     -75.88860000
C      -46.52740000     -33.02870000     -75.90440000
H      -48.36940000     -32.20820000     -75.03810000
H      -44.73450000     -31.06490000     -73.10010000
H      -44.61410000     -33.52220000     -76.60700000
H      -47.02040000     -33.66370000     -76.61280000
C      -42.99210000     -32.14480000     -74.62360000
H      -42.68820000     -31.10740000     -74.82620000
H      -42.45960000     -32.71790000     -75.40230000
C      -47.41690000     -30.76820000     -72.97700000
H      -47.84040000     -29.84780000     -73.43650000
H      -48.31460000     -31.33200000     -72.55180000
S      -42.50660000     -32.67020000     -72.88800000
S      -46.50740000     -30.01690000     -71.40160000
C      -43.73050000     -33.95110000     -72.25680000
H      -44.71640000     -33.49520000     -72.15660000
H      -43.74990000     -34.75120000     -72.94130000
C      -46.81460000     -31.26300000     -70.11480000
H      -47.87670000     -31.57550000     -70.21780000
H      -46.68680000     -30.89020000     -69.05090000
C      -45.94950000     -32.46110000     -70.37390000
H      -46.30440000     -32.83760000     -71.37110000
H      -44.90200000     -32.26260000     -70.50640000
C      -43.09930000     -34.32230000     -70.83070000
H      -42.89680000     -33.38900000     -70.25800000
H      -42.14340000     -34.87060000     -70.95590000
C      -43.95460000     -35.19550000     -69.90750000
C      -43.57540000     -36.45060000     -69.47770000
C      -45.17970000     -34.73970000     -69.22980000
H      -42.56300000     -36.86030000     -69.69710000
C      -45.55550000     -35.70360000     -68.30120000
C      -46.07520000     -33.58750000     -69.33500000
C      -47.16600000     -33.72270000     -68.49090000
S      -44.55040000     -37.09020000     -68.18280000
S      -47.13450000     -35.23770000     -67.61010000
H      -48.03750000     -33.06020000     -68.27750000
