40
Properties=species:S:1:pos:R:3 #=T CELL(abcABC):=T 1.889726e+02=T 90.00000=T Traj:=T positionsangstrom=T Step:=T 0=T Bead:=T pbc="F F F"
C      -48.10710000     -33.01900000     -73.86890000
C      -46.80570000     -33.20150000     -73.42630000
C      -46.34790000     -32.44300000     -72.38050000
C      -47.17950000     -31.52240000     -71.67870000
C      -48.53010000     -31.48990000     -72.07090000
C      -48.97580000     -32.19030000     -73.15070000
H      -48.50970000     -33.53940000     -74.72350000
H      -45.38740000     -32.71390000     -71.94310000
H      -49.26160000     -30.83340000     -71.56390000
H      -49.91590000     -31.90800000     -73.57370000
C      -46.68780000     -30.77220000     -70.51900000
H      -46.78700000     -29.66630000     -70.51600000
H      -45.61170000     -30.88070000     -70.35690000
C      -45.74120000     -34.10250000     -74.22120000
H      -45.87200000     -33.93020000     -75.33830000
H      -44.70680000     -33.88300000     -74.00130000
S      -47.35750000     -31.36410000     -68.82370000
S      -45.92770000     -35.90260000     -73.76460000
C      -47.01300000     -33.17370000     -69.07280000
H      -47.75280000     -33.69730000     -68.41230000
H      -47.08910000     -33.57210000     -70.09120000
C      -46.33620000     -35.88550000     -71.98350000
H      -47.28330000     -36.51500000     -71.93160000
H      -46.76640000     -34.90350000     -71.68000000
C      -45.12080000     -36.31030000     -71.11530000
H      -45.46360000     -36.31540000     -70.07780000
H      -44.82670000     -37.34020000     -71.44870000
C      -45.62360000     -33.54920000     -68.51600000
H      -45.59260000     -34.62240000     -68.32890000
H      -45.51240000     -33.16260000     -67.50410000
C      -44.48190000     -33.18110000     -69.41680000
C      -43.74870000     -32.07340000     -69.08360000
C      -43.81770000     -33.98870000     -70.41300000
H      -43.93670000     -31.57490000     -68.13970000
C      -42.62160000     -33.37320000     -70.78650000
C      -44.07620000     -35.18930000     -71.21640000
C      -43.02200000     -35.47280000     -72.03100000
S      -42.32670000     -31.85660000     -69.99300000
S      -41.78910000     -34.24130000     -72.05650000
H      -43.25860000     -36.15760000     -72.80450000
