40
Properties=species:S:1:pos:R:3 #=T CELL(abcABC):=T 1.889726e+02=T 90.00000=T Traj:=T positionsangstrom=T Step:=T 0=T Bead:=T pbc="F F F"
C      -47.50500000     -32.40130000     -73.68670000
C      -46.77660000     -31.19270000     -73.63930000
C      -45.42860000     -31.25340000     -74.02600000
C      -44.84650000     -32.42410000     -74.58490000
C      -45.58890000     -33.61570000     -74.49620000
C      -46.91940000     -33.58980000     -74.11020000
H      -48.52400000     -32.38010000     -73.40770000
H      -44.75380000     -30.36970000     -73.82300000
H      -45.14850000     -34.54010000     -74.87540000
H      -47.52700000     -34.49440000     -74.09770000
C      -43.36430000     -32.50260000     -74.84140000
H      -43.06650000     -31.57980000     -75.40490000
H      -43.06600000     -33.38020000     -75.51470000
C      -47.30570000     -29.96480000     -72.86890000
H      -46.84380000     -29.07550000     -73.26300000
H      -48.37840000     -29.78030000     -73.08470000
S      -42.34280000     -32.45100000     -73.21700000
S      -46.94520000     -29.83400000     -71.03390000
C      -43.13890000     -33.76690000     -72.22840000
H      -44.21780000     -33.75010000     -72.41350000
H      -42.94810000     -34.83360000     -72.48300000
C      -47.26330000     -31.64800000     -70.60330000
H      -47.74890000     -32.14360000     -71.47720000
H      -48.04930000     -31.57530000     -69.80960000
C      -45.93420000     -32.28710000     -70.09160000
H      -45.20830000     -32.26010000     -70.92330000
H      -45.50410000     -31.77830000     -69.19280000
C      -42.90380000     -33.62880000     -70.64990000
H      -43.29710000     -32.64320000     -70.40540000
H      -41.80000000     -33.68120000     -70.40480000
C      -43.56990000     -34.72870000     -69.80470000
C      -42.93480000     -35.89630000     -69.31150000
C      -44.95380000     -34.67080000     -69.44280000
H      -41.89850000     -36.32140000     -69.46520000
C      -45.43940000     -35.87730000     -68.82950000
C      -46.09980000     -33.76840000     -69.65410000
C      -47.31400000     -34.30730000     -69.33080000
S      -44.10180000     -36.92850000     -68.40300000
S      -47.15940000     -35.96120000     -68.72840000
H      -48.21000000     -33.72440000     -69.57590000
