40
Properties=species:S:1:pos:R:3 #=T CELL(abcABC):=T 1.889726e+02=T 90.00000=T Traj:=T positionsangstrom=T Step:=T 0=T Bead:=T pbc="F F F"
C      -47.52780000     -32.40800000     -73.62660000
C      -46.72630000     -31.22660000     -73.55560000
C      -45.37940000     -31.31130000     -73.88460000
C      -44.78460000     -32.55130000     -74.26570000
C      -45.61590000     -33.62470000     -74.36880000
C      -46.94910000     -33.59410000     -73.95950000
H      -48.61960000     -32.34060000     -73.33250000
H      -44.69210000     -30.41200000     -73.82120000
H      -45.16360000     -34.55540000     -74.65840000
H      -47.46330000     -34.55800000     -73.93510000
C      -43.31310000     -32.58610000     -74.51370000
H      -43.03140000     -31.82550000     -75.24010000
H      -43.11320000     -33.52680000     -74.91580000
C      -47.31340000     -29.93190000     -73.12710000
H      -46.75190000     -29.03340000     -73.35120000
H      -48.41070000     -29.83110000     -73.30000000
S      -42.46360000     -32.36530000     -72.88810000
S      -46.97460000     -29.90590000     -71.22000000
C      -43.06930000     -33.83700000     -71.92510000
H      -44.15330000     -33.89900000     -72.08110000
H      -42.57090000     -34.69200000     -72.34060000
C      -47.20310000     -31.50910000     -70.45610000
H      -48.00260000     -32.07790000     -70.91220000
H      -47.57250000     -31.34130000     -69.42400000
C      -45.92570000     -32.38270000     -70.39310000
H      -45.50800000     -32.45290000     -71.40620000
H      -45.17110000     -31.85020000     -69.89500000
C      -42.79540000     -33.52850000     -70.47720000
H      -43.13860000     -32.58830000     -70.12840000
H      -41.70030000     -33.55760000     -70.36320000
C      -43.56140000     -34.63640000     -69.73830000
C      -42.90710000     -35.77990000     -69.26970000
C      -44.98660000     -34.66010000     -69.62880000
H      -41.86520000     -35.99260000     -69.04600000
C      -45.41840000     -35.86750000     -69.09940000
C      -46.17330000     -33.76010000     -69.81930000
C      -47.35250000     -34.35710000     -69.46810000
S      -44.08680000     -36.94830000     -68.77100000
S      -47.16110000     -35.94110000     -68.79470000
H      -48.30070000     -33.88780000     -69.62530000
