40
Properties=species:S:1:pos:R:3 #=T CELL(abcABC):=T 1.889726e+02=T 90.00000=T Traj:=T positionsangstrom=T Step:=T 0=T Bead:=T pbc="F F F"
C      -47.61310000     -32.68180000     -73.81480000
C      -46.92000000     -31.49990000     -73.55790000
C      -45.48980000     -31.49630000     -73.59540000
C      -44.79950000     -32.58430000     -74.06610000
C      -45.53010000     -33.74200000     -74.33830000
C      -46.92060000     -33.82940000     -74.26660000
H      -48.65680000     -32.76790000     -73.54000000
H      -44.96950000     -30.62780000     -73.38130000
H      -44.94100000     -34.55200000     -74.78480000
H      -47.48620000     -34.74210000     -74.43630000
C      -43.29450000     -32.46930000     -74.28760000
H      -43.01510000     -31.71160000     -74.96060000
H      -42.89650000     -33.38570000     -74.80110000
C      -47.55360000     -30.31390000     -73.00830000
H      -47.33220000     -29.47610000     -73.72280000
H      -48.63820000     -30.27750000     -72.97080000
S      -42.38660000     -31.98220000     -72.70380000
S      -46.83790000     -29.90360000     -71.32390000
C      -42.56610000     -33.60690000     -71.80080000
H      -43.32630000     -34.19170000     -72.31810000
H      -41.61870000     -34.22010000     -71.89420000
C      -47.09420000     -31.46920000     -70.38190000
H      -47.98970000     -31.93950000     -70.82460000
H      -47.40710000     -31.12960000     -69.40280000
C      -45.89970000     -32.39000000     -70.29910000
H      -45.46880000     -32.47610000     -71.25770000
H      -45.17060000     -31.89100000     -69.56100000
C      -42.83300000     -33.46300000     -70.36260000
H      -43.46220000     -32.55100000     -70.22280000
H      -41.89220000     -33.26680000     -69.82760000
C      -43.59510000     -34.63650000     -69.82770000
C      -43.01310000     -35.80630000     -69.40920000
C      -45.05970000     -34.70420000     -69.61740000
H      -42.05240000     -36.00240000     -69.64630000
C      -45.46650000     -35.86390000     -68.98280000
C      -46.10170000     -33.78260000     -69.84080000
C      -47.36580000     -34.25110000     -69.64810000
S      -44.16950000     -36.99620000     -68.90350000
S      -47.26790000     -35.87110000     -68.93900000
H      -48.32160000     -33.80960000     -69.58880000
