40
Properties=species:S:1:pos:R:3 #=T CELL(abcABC):=T 1.889726e+02=T 90.00000=T Traj:=T positionsangstrom=T Step:=T 0=T Bead:=T pbc="F F F"
C      -47.27400000     -32.66930000     -74.14270000
C      -46.71790000     -31.48080000     -73.70560000
C      -45.29320000     -31.38590000     -73.70520000
C      -44.48700000     -32.39460000     -74.15420000
C      -45.07120000     -33.65770000     -74.54580000
C      -46.44670000     -33.73550000     -74.48270000
H      -48.38570000     -32.83090000     -74.17040000
H      -44.93240000     -30.43970000     -73.21660000
H      -44.45500000     -34.50450000     -74.87350000
H      -46.97680000     -34.65750000     -74.72510000
C      -43.01210000     -32.29400000     -74.24640000
H      -42.74700000     -31.52980000     -74.93540000
H      -42.56290000     -33.17340000     -74.62210000
C      -47.53040000     -30.30600000     -73.10920000
H      -47.27840000     -29.34220000     -73.58630000
H      -48.54780000     -30.48160000     -73.30750000
S      -42.21170000     -32.08940000     -72.56700000
S      -47.17020000     -29.96480000     -71.38080000
C      -43.06480000     -33.61750000     -71.91780000
H      -44.07570000     -33.65180000     -72.23690000
H      -42.62550000     -34.47040000     -72.38330000
C      -47.35980000     -31.55240000     -70.53690000
H      -48.29260000     -32.03810000     -70.92000000
H      -47.66090000     -31.39180000     -69.50150000
C      -46.00790000     -32.34950000     -70.41070000
H      -45.62920000     -32.50700000     -71.41580000
H      -45.27900000     -31.71620000     -69.86710000
C      -42.84810000     -33.54880000     -70.32110000
H      -43.19630000     -32.58280000     -69.98050000
H      -41.79610000     -33.62660000     -70.19000000
C      -43.70230000     -34.68310000     -69.71610000
C      -43.15420000     -35.88150000     -69.31760000
C      -45.11300000     -34.65280000     -69.47060000
H      -42.16300000     -36.34420000     -69.51570000
C      -45.57270000     -35.87030000     -69.02980000
C      -46.22110000     -33.64860000     -69.63480000
C      -47.42650000     -34.23020000     -69.47520000
S      -44.29130000     -37.08680000     -68.82190000
S      -47.28330000     -35.84850000     -68.73380000
H      -48.36010000     -33.73980000     -69.62290000
