40
Properties=species:S:1:pos:R:3 #=T CELL(abcABC):=T 1.889726e+02=T 90.00000=T Traj:=T positionsangstrom=T Step:=T 0=T Bead:=T pbc="F F F"
C      -47.14370000     -32.45610000     -74.47460000
C      -46.21350000     -32.94800000     -73.60580000
C      -45.99190000     -32.30310000     -72.42690000
C      -46.63650000     -31.11580000     -72.11250000
C      -47.66750000     -30.64900000     -72.93390000
C      -47.99430000     -31.40160000     -74.08480000
H      -47.30200000     -32.95570000     -75.41440000
H      -45.28780000     -32.66690000     -71.71130000
H      -48.11900000     -29.74210000     -72.75130000
H      -48.67840000     -31.02490000     -74.82070000
C      -46.15280000     -30.35630000     -70.90360000
H      -46.34930000     -29.29150000     -70.99930000
H      -45.10840000     -30.60180000     -70.68230000
C      -45.57380000     -34.22010000     -73.99480000
H      -45.34320000     -34.38580000     -75.03740000
H      -44.63800000     -34.42840000     -73.42740000
S      -46.92840000     -30.71780000     -69.25250000
S      -46.63850000     -35.80620000     -73.58050000
C      -46.99420000     -32.56400000     -69.22020000
H      -47.91070000     -32.89260000     -68.80700000
H      -46.97290000     -32.91990000     -70.27750000
C      -47.07800000     -35.30700000     -71.81900000
H      -48.16900000     -35.41780000     -71.66600000
H      -47.07980000     -34.23490000     -71.73980000
C      -46.18240000     -35.92980000     -70.67260000
H      -46.44530000     -35.63840000     -69.66490000
H      -46.30230000     -37.02170000     -70.83230000
C      -45.84680000     -33.16410000     -68.44190000
H      -46.10970000     -34.23480000     -68.23540000
H      -45.75810000     -32.61750000     -67.47100000
C      -44.52990000     -33.25760000     -69.18930000
C      -43.45390000     -32.47250000     -68.78780000
C      -44.22650000     -34.17350000     -70.25480000
H      -43.40500000     -31.70590000     -67.94780000
C      -42.91970000     -34.02100000     -70.64230000
C      -44.78650000     -35.42020000     -70.85590000
C      -43.86930000     -36.08420000     -71.56470000
S      -42.00030000     -32.82970000     -69.74770000
S      -42.21200000     -35.37250000     -71.63550000
H      -44.14280000     -36.98960000     -72.03350000
