40
Properties=species:S:1:pos:R:3 #=T CELL(abcABC):=T 1.889726e+02=T 90.00000=T Traj:=T positionsangstrom=T Step:=T 0=T Bead:=T pbc="F F F"
C      -47.87440000     -32.40360000     -74.26770000
C      -46.67390000     -32.95570000     -73.73760000
C      -45.97010000     -32.29790000     -72.72230000
C      -46.46110000     -31.10140000     -72.23960000
C      -47.63780000     -30.57000000     -72.77450000
C      -48.34180000     -31.16820000     -73.80460000
H      -48.38300000     -32.92700000     -75.08850000
H      -45.04130000     -32.67850000     -72.24370000
H      -47.92050000     -29.53740000     -72.51160000
H      -49.25270000     -30.70560000     -74.22560000
C      -45.79620000     -30.42570000     -71.09750000
H      -45.82620000     -29.30530000     -71.15150000
H      -44.75350000     -30.65590000     -70.89490000
C      -46.00870000     -34.24880000     -74.16330000
H      -46.27630000     -34.40650000     -75.28620000
H      -44.96810000     -34.24780000     -74.24310000
S      -46.63260000     -30.56820000     -69.41580000
S      -46.65170000     -35.82230000     -73.43720000
C      -46.94800000     -32.40440000     -69.44350000
H      -47.98350000     -32.48290000     -69.01570000
H      -47.00840000     -32.79270000     -70.47560000
C      -47.06120000     -35.31840000     -71.66910000
H      -48.07770000     -35.63600000     -71.48940000
H      -46.95030000     -34.24160000     -71.51510000
C      -46.12880000     -36.01790000     -70.74410000
H      -46.47100000     -35.93150000     -69.76020000
H      -46.19870000     -37.05570000     -70.98280000
C      -45.93890000     -33.17760000     -68.49480000
H      -46.37440000     -34.18370000     -68.26460000
H      -45.87760000     -32.69260000     -67.48870000
C      -44.52560000     -33.33610000     -69.15490000
C      -43.50910000     -32.52200000     -68.72070000
C      -44.11810000     -34.31930000     -70.14290000
H      -43.52280000     -31.81730000     -67.96220000
C      -42.74640000     -34.20130000     -70.49630000
C      -44.65850000     -35.54140000     -70.76330000
C      -43.76750000     -36.13560000     -71.57330000
S      -41.95540000     -32.88940000     -69.65160000
S      -42.14880000     -35.34760000     -71.66490000
H      -43.88970000     -37.01940000     -72.11540000
