40
Properties=species:S:1:pos:R:3 #=T CELL(abcABC):=T 1.889726e+02=T 90.00000=T Traj:=T positionsangstrom=T Step:=T 0=T Bead:=T pbc="F F F"
C      -47.97860000     -32.51130000     -74.04270000
C      -46.74810000     -33.04440000     -73.66340000
C      -45.87890000     -32.25870000     -72.84470000
C      -46.41720000     -31.13390000     -72.22580000
C      -47.67890000     -30.65690000     -72.52170000
C      -48.45770000     -31.35990000     -73.41840000
H      -48.68340000     -32.97150000     -74.76790000
H      -44.86110000     -32.68070000     -72.63290000
H      -48.07530000     -29.77550000     -71.89480000
H      -49.51120000     -31.07330000     -73.59720000
C      -45.56560000     -30.46070000     -71.21890000
H      -45.39550000     -29.38850000     -71.46930000
H      -44.57480000     -30.95320000     -71.13210000
C      -46.31920000     -34.29410000     -74.34780000
H      -46.72280000     -34.35660000     -75.30140000
H      -45.16270000     -34.39150000     -74.34790000
S      -46.49750000     -30.50300000     -69.59140000
S      -46.84300000     -35.82940000     -73.40070000
C      -46.98550000     -32.30940000     -69.39840000
H      -47.91730000     -32.34530000     -68.93410000
H      -47.09830000     -32.79200000     -70.38610000
C      -46.97730000     -35.42590000     -71.63740000
H      -48.05900000     -35.70720000     -71.38130000
H      -47.00320000     -34.33340000     -71.51410000
C      -45.98660000     -36.03440000     -70.66540000
H      -46.27940000     -35.73760000     -69.59760000
H      -45.88900000     -37.13970000     -70.80680000
C      -45.97310000     -33.24190000     -68.59400000
H      -46.40230000     -34.18520000     -68.63680000
H      -45.89790000     -32.89790000     -67.51810000
C      -44.56890000     -33.33550000     -69.18620000
C      -43.57180000     -32.48860000     -68.82540000
C      -44.08380000     -34.29350000     -70.22480000
H      -43.70190000     -31.76390000     -68.02970000
C      -42.72490000     -34.10060000     -70.58520000
C      -44.56700000     -35.51930000     -70.81440000
C      -43.65100000     -36.04360000     -71.65270000
S      -42.00650000     -32.81350000     -69.60850000
S      -42.04600000     -35.30670000     -71.64290000
H      -43.77490000     -37.00950000     -72.10980000
