40
Properties=species:S:1:pos:R:3 #=T CELL(abcABC):=T 1.889726e+02=T 90.00000=T Traj:=T positionsangstrom=T Step:=T 0=T Bead:=T pbc="F F F"
C      -48.19630000     -32.64090000     -73.90240000
C      -46.86910000     -33.17930000     -73.72350000
C      -45.98270000     -32.48480000     -72.88930000
C      -46.31070000     -31.24940000     -72.28140000
C      -47.66360000     -30.86930000     -72.27800000
C      -48.53780000     -31.45860000     -73.21770000
H      -48.87080000     -33.21420000     -74.50080000
H      -45.02460000     -32.91810000     -72.88020000
H      -47.86930000     -30.06200000     -71.65650000
H      -49.53740000     -31.08270000     -73.29320000
C      -45.38520000     -30.49410000     -71.38340000
H      -45.49260000     -29.39340000     -71.61060000
H      -44.30810000     -30.65490000     -71.42130000
C      -46.40090000     -34.49210000     -74.23310000
H      -46.66490000     -34.80880000     -75.25070000
H      -45.37320000     -34.56320000     -74.21180000
S      -45.93760000     -30.52260000     -69.58760000
S      -47.34320000     -35.89460000     -73.34240000
C      -46.75470000     -32.19160000     -69.28700000
H      -47.62770000     -31.95970000     -68.69320000
H      -47.11080000     -32.50540000     -70.22740000
C      -47.18350000     -35.36410000     -71.54840000
H      -48.07330000     -35.70960000     -71.05990000
H      -47.33570000     -34.26430000     -71.44110000
C      -45.95090000     -35.97050000     -70.87010000
H      -46.23790000     -36.09000000     -69.80950000
H      -45.84680000     -37.05840000     -71.16120000
C      -45.89710000     -33.22650000     -68.53570000
H      -46.44580000     -34.25220000     -68.36760000
H      -45.80740000     -32.82310000     -67.52740000
C      -44.51550000     -33.37880000     -69.15070000
C      -43.47780000     -32.58210000     -68.66740000
C      -44.08320000     -34.21850000     -70.31030000
H      -43.56700000     -31.87380000     -67.77500000
C      -42.75180000     -33.97100000     -70.59160000
C      -44.62430000     -35.31260000     -71.04810000
C      -43.63590000     -35.97530000     -71.80410000
S      -42.00420000     -32.71610000     -69.62230000
S      -42.07620000     -35.09510000     -71.76810000
H      -43.79520000     -36.88620000     -72.45620000
