40
Properties=species:S:1:pos:R:3 #=T CELL(abcABC):=T 1.889726e+02=T 90.00000=T Traj:=T positionsangstrom=T Step:=T 0=T Bead:=T pbc="F F F"
C      -44.34390000     -37.29650000     -71.73420000
C      -44.12420000     -36.20830000     -72.59790000
C      -45.24890000     -35.54820000     -73.16230000
C      -46.49200000     -36.02660000     -72.79170000
C      -46.69610000     -37.06060000     -71.90980000
C      -45.62070000     -37.75360000     -71.37840000
H      -43.58730000     -37.86790000     -71.24160000
H      -45.26400000     -34.76260000     -73.90240000
H      -47.71850000     -37.43330000     -71.75310000
H      -45.55220000     -38.67750000     -70.84870000
C      -47.74610000     -35.32830000     -73.29750000
H      -48.37200000     -35.90920000     -73.88140000
H      -47.52480000     -34.41790000     -73.85700000
C      -42.72700000     -35.78180000     -73.10860000
H      -42.01960000     -35.86860000     -72.22160000
H      -42.36400000     -36.58850000     -73.78590000
S      -48.82100000     -34.76060000     -71.89940000
S      -42.52360000     -34.27160000     -73.91800000
C      -47.74900000     -33.33480000     -71.30140000
H      -47.44950000     -32.70620000     -72.23940000
H      -48.51100000     -32.69370000     -70.79110000
C      -42.76860000     -33.11890000     -72.40240000
H      -41.91610000     -32.44490000     -72.43160000
H      -42.90090000     -33.71990000     -71.44680000
C      -44.15430000     -32.30400000     -72.50630000
H      -44.10910000     -31.74790000     -73.42760000
H      -44.97770000     -33.04180000     -72.52790000
C      -46.61440000     -33.78640000     -70.36480000
H      -45.87210000     -34.38510000     -70.93790000
H      -47.05530000     -34.39880000     -69.59120000
C      -46.02750000     -32.53670000     -69.64440000
C      -46.57580000     -32.24480000     -68.46380000
C      -45.16260000     -31.48720000     -70.16450000
H      -47.37060000     -32.91310000     -67.95340000
C      -45.07340000     -30.47780000     -69.25450000
C      -44.37960000     -31.33380000     -71.39240000
C      -43.69500000     -30.11340000     -71.31260000
S      -45.91990000     -30.67510000     -67.82260000
S      -44.08490000     -29.16510000     -69.91410000
H      -43.05020000     -29.81650000     -72.18990000
