40
Properties=species:S:1:pos:R:3 #=T CELL(abcABC):=T 1.889726e+02=T 90.00000=T Traj:=T positionsangstrom=T Step:=T 0=T Bead:=T pbc="F F F"
C      -43.19920000     -30.15790000     -72.38530000
C      -44.58830000     -30.32530000     -72.59690000
C      -45.50320000     -30.20880000     -71.49360000
C      -45.02740000     -29.91080000     -70.19100000
C      -43.65470000     -29.76680000     -70.00440000
C      -42.74600000     -29.85450000     -71.06910000
H      -42.50270000     -30.24430000     -73.20160000
H      -46.57790000     -30.42510000     -71.70410000
H      -43.34290000     -29.55150000     -68.98500000
H      -41.60210000     -29.81370000     -70.92790000
C      -46.00060000     -29.85720000     -69.07870000
H      -46.79990000     -29.10560000     -69.15080000
H      -45.37440000     -29.68630000     -68.15760000
C      -45.13690000     -30.50010000     -73.98780000
H      -45.49280000     -29.50790000     -74.20820000
H      -44.24920000     -30.74310000     -74.67320000
S      -47.00430000     -31.35440000     -68.73040000
S      -46.42990000     -31.80280000     -74.26080000
C      -45.92080000     -32.88070000     -68.61950000
H      -44.83030000     -32.90510000     -68.47740000
H      -46.44670000     -33.47800000     -67.75260000
C      -45.69130000     -33.33630000     -73.60070000
H      -45.09300000     -33.08670000     -72.75340000
H      -44.95660000     -33.71270000     -74.28890000
C      -46.73730000     -34.44570000     -73.24250000
H      -47.44610000     -34.00670000     -72.53030000
H      -47.12170000     -34.71860000     -74.21000000
C      -46.09080000     -33.57370000     -69.96820000
H      -45.48680000     -33.01150000     -70.68030000
H      -47.13210000     -33.54510000     -70.39370000
C      -45.43210000     -34.93720000     -70.02000000
C      -44.61250000     -35.44430000     -69.04760000
C      -45.43360000     -35.72260000     -71.26630000
H      -44.56350000     -35.00320000     -68.06540000
C      -44.90990000     -37.02160000     -71.07900000
C      -45.94470000     -35.57990000     -72.58360000
C      -45.80200000     -36.70640000     -73.39720000
S      -44.03360000     -37.02620000     -69.55250000
S      -44.93060000     -38.00590000     -72.52080000
H      -46.20480000     -36.78090000     -74.42610000
