40
Properties=species:S:1:pos:R:3 #=T CELL(abcABC):=T 1.889726e+02=T 90.00000=T Traj:=T positionsangstrom=T Step:=T 0=T Bead:=T pbc="F F F"
C      -47.86680000     -32.18710000     -74.12830000
C      -46.88970000     -32.98200000     -73.52520000
C      -46.15800000     -32.37220000     -72.48500000
C      -46.53340000     -31.19840000     -71.88530000
C      -47.70310000     -30.54860000     -72.31140000
C      -48.32110000     -31.00910000     -73.47440000
H      -48.51440000     -32.48720000     -74.97910000
H      -45.19760000     -32.92230000     -72.15190000
H      -48.02210000     -29.64200000     -71.76590000
H      -49.20810000     -30.51820000     -73.96770000
C      -45.61170000     -30.55640000     -70.87180000
H      -45.55300000     -29.48980000     -71.08480000
H      -44.63720000     -31.09330000     -70.98480000
C      -46.53850000     -34.33990000     -74.12880000
H      -47.00860000     -34.33820000     -75.07030000
H      -45.36640000     -34.57380000     -74.19900000
S      -46.25700000     -30.80160000     -69.16550000
S      -47.26240000     -35.87390000     -73.05260000
C      -46.52790000     -32.56900000     -68.95070000
H      -47.45640000     -32.70020000     -68.36300000
H      -46.73130000     -32.96280000     -69.95240000
C      -47.18580000     -35.42130000     -71.22070000
H      -48.08290000     -35.76130000     -70.77570000
H      -47.25070000     -34.41010000     -71.26990000
C      -45.96900000     -36.03900000     -70.52550000
H      -45.87840000     -35.92320000     -69.45830000
H      -45.89380000     -37.09120000     -70.84500000
C      -45.39540000     -33.41600000     -68.33680000
H      -45.78610000     -34.36590000     -68.10020000
H      -45.23210000     -32.97830000     -67.23610000
C      -44.16100000     -33.43930000     -69.21600000
C      -43.10190000     -32.48930000     -69.05150000
C      -44.00630000     -34.30690000     -70.40470000
H      -42.78120000     -31.80300000     -68.27090000
C      -42.77460000     -34.03970000     -70.99930000
C      -44.69100000     -35.40560000     -71.04590000
C      -43.92580000     -35.90170000     -72.09910000
S      -41.82200000     -32.80220000     -70.22560000
S      -42.40800000     -35.07300000     -72.34200000
H      -44.28120000     -36.79160000     -72.71880000
