40
Properties=species:S:1:pos:R:3 #=T CELL(abcABC):=T 1.889726e+02=T 90.00000=T Traj:=T positionsangstrom=T Step:=T 0=T Bead:=T pbc="F F F"
C      -44.53210000     -33.57090000     -74.11680000
C      -44.86160000     -34.91000000     -73.86440000
C      -46.13340000     -35.25400000     -73.44350000
C      -47.16400000     -34.30410000     -73.26130000
C      -46.90310000     -32.99530000     -73.64520000
C      -45.60730000     -32.63930000     -74.05510000
H      -43.57460000     -33.31740000     -74.31270000
H      -46.48740000     -36.21120000     -73.19000000
H      -47.59090000     -32.22080000     -73.70450000
H      -45.37810000     -31.53550000     -74.19320000
C      -48.48220000     -34.73650000     -72.73600000
H      -48.55020000     -35.85560000     -72.49360000
H      -49.32250000     -34.46320000     -73.38130000
C      -43.74270000     -35.87770000     -73.82920000
H      -44.06890000     -36.81100000     -73.37090000
H      -43.27370000     -36.14310000     -74.73960000
S      -48.77160000     -33.94540000     -71.05640000
S      -42.33050000     -35.40990000     -72.69030000
C      -47.49000000     -34.81860000     -70.01440000
H      -48.02290000     -35.73640000     -69.67020000
H      -46.64210000     -35.12880000     -70.65400000
C      -42.98720000     -35.72920000     -70.97120000
H      -42.19360000     -35.44130000     -70.31180000
H      -43.16350000     -36.81290000     -70.77740000
C      -44.20350000     -34.82890000     -70.61030000
H      -44.99280000     -34.98220000     -71.35040000
H      -44.71220000     -35.21950000     -69.72240000
C      -46.97730000     -33.98130000     -68.81720000
H      -46.31780000     -34.63810000     -68.26230000
H      -47.92690000     -33.82470000     -68.20000000
C      -46.30590000     -32.67190000     -69.11830000
C      -46.84100000     -31.50260000     -68.77510000
C      -45.00450000     -32.52070000     -69.74470000
H      -47.89870000     -31.37090000     -68.45370000
C      -44.54330000     -31.15270000     -69.77310000
C      -43.89730000     -33.35810000     -70.32020000
C      -42.81990000     -32.66750000     -70.77610000
S      -45.82210000     -30.06620000     -69.23660000
S      -42.98670000     -30.92450000     -70.38290000
H      -41.97410000     -33.11250000     -71.29170000
