40
Properties=species:S:1:pos:R:3 #=T CELL(abcABC):=T 1.889726e+02=T 90.00000=T Traj:=T positionsangstrom=T Step:=T 0=T Bead:=T pbc="F F F"
C      -44.31320000     -37.80250000     -71.32680000
C      -43.94930000     -36.66570000     -70.55650000
C      -44.97770000     -35.92230000     -69.83520000
C      -46.30220000     -36.42950000     -69.83770000
C      -46.56780000     -37.57630000     -70.62080000
C      -45.60560000     -38.29270000     -71.36990000
H      -43.53760000     -38.18580000     -71.99660000
H      -44.63570000     -34.99070000     -69.39740000
H      -47.58190000     -37.95310000     -70.56850000
H      -45.88320000     -39.18480000     -71.98380000
C      -47.40620000     -35.77740000     -68.95940000
H      -46.86380000     -35.18480000     -68.25630000
H      -48.06530000     -36.50740000     -68.47750000
C      -42.50590000     -36.13860000     -70.64190000
H      -41.90370000     -36.13630000     -69.71730000
H      -41.99870000     -36.77440000     -71.42650000
S      -48.60330000     -34.57610000     -69.82080000
S      -42.39000000     -34.37330000     -71.22480000
C      -47.46490000     -33.11750000     -69.90080000
H      -47.59410000     -32.30660000     -69.20270000
H      -46.40830000     -33.45990000     -69.70570000
C      -43.57160000     -34.49570000     -72.63670000
H      -43.79240000     -35.56090000     -72.73770000
H      -43.00380000     -34.23140000     -73.52200000
C      -44.81880000     -33.66220000     -72.60860000
H      -45.43420000     -34.03190000     -73.48410000
H      -45.41400000     -33.84470000     -71.63390000
C      -47.71610000     -32.47210000     -71.22890000
H      -48.81390000     -32.15230000     -71.25980000
H      -47.58490000     -33.23410000     -72.01170000
C      -46.72790000     -31.29040000     -71.40880000
C      -47.07070000     -30.01130000     -71.01860000
C      -45.47330000     -31.22020000     -72.07600000
H      -47.99310000     -29.81800000     -70.51400000
C      -44.96480000     -29.94890000     -72.29780000
C      -44.57360000     -32.21570000     -72.69860000
C      -43.50940000     -31.65610000     -73.34920000
S      -45.89500000     -28.69630000     -71.49580000
S      -43.47610000     -29.91870000     -73.14430000
H      -42.79920000     -32.25360000     -73.93110000
