40
Properties=species:S:1:pos:R:3 #=T CELL(abcABC):=T 1.889726e+02=T 90.00000=T Traj:=T positionsangstrom=T Step:=T 0=T Bead:=T pbc="F F F"
C      -47.25140000     -32.15980000     -74.19480000
C      -46.16640000     -32.58090000     -73.42340000
C      -45.93780000     -31.96050000     -72.16040000
C      -46.87090000     -31.01430000     -71.66300000
C      -48.00530000     -30.68520000     -72.39480000
C      -48.18480000     -31.26320000     -73.70150000
H      -47.42500000     -32.60850000     -75.14180000
H      -45.09080000     -32.26110000     -71.55460000
H      -48.80460000     -30.03400000     -71.94750000
H      -49.09780000     -31.01480000     -74.25910000
C      -46.70820000     -30.24410000     -70.39140000
H      -47.49070000     -29.50770000     -70.37430000
H      -45.77880000     -29.67700000     -70.50870000
C      -45.22830000     -33.68150000     -73.98990000
H      -45.02820000     -33.56560000     -75.04310000
H      -44.29480000     -33.63400000     -73.41920000
S      -46.50850000     -31.11610000     -68.74370000
S      -46.24990000     -35.21160000     -73.91330000
C      -46.95880000     -32.92920000     -69.14050000
H      -47.95080000     -33.04110000     -68.75230000
H      -46.92690000     -32.96170000     -70.27240000
C      -46.92770000     -35.26060000     -72.21120000
H      -47.97490000     -35.64830000     -72.29410000
H      -47.05740000     -34.20140000     -71.86640000
C      -46.15120000     -36.09650000     -71.19360000
H      -46.59660000     -36.01160000     -70.15260000
H      -46.22180000     -37.16880000     -71.37800000
C      -45.93650000     -33.87100000     -68.45570000
H      -46.18220000     -34.87180000     -68.46840000
H      -45.73780000     -33.61820000     -67.34870000
C      -44.59120000     -33.74660000     -69.16350000
C      -43.68720000     -32.82720000     -68.80600000
C      -44.19120000     -34.55570000     -70.30820000
H      -43.83120000     -32.18850000     -67.96010000
C      -42.89060000     -34.23340000     -70.71980000
C      -44.79080000     -35.57710000     -71.17030000
C      -43.84220000     -36.02930000     -72.03540000
S      -42.25050000     -32.87490000     -69.78360000
S      -42.29790000     -35.19940000     -72.09610000
H      -44.04160000     -36.66770000     -72.85100000
