40
Properties=species:S:1:pos:R:3 #=T CELL(abcABC):=T 1.889726e+02=T 90.00000=T Traj:=T positionsangstrom=T Step:=T 0=T Bead:=T pbc="F F F"
C      -47.30610000     -32.08490000     -74.30060000
C      -46.21140000     -32.44860000     -73.54800000
C      -46.05670000     -31.91760000     -72.28990000
C      -46.91090000     -30.87340000     -71.76880000
C      -48.08040000     -30.57190000     -72.48450000
C      -48.24450000     -31.16170000     -73.76430000
H      -47.48770000     -32.46080000     -75.32000000
H      -45.17440000     -32.19070000     -71.76640000
H      -48.86570000     -29.84680000     -72.15330000
H      -49.06150000     -30.85320000     -74.41120000
C      -46.58160000     -30.21640000     -70.47820000
H      -47.31400000     -29.43760000     -70.24830000
H      -45.59800000     -29.71300000     -70.41550000
C      -45.29420000     -33.57760000     -73.99010000
H      -44.89790000     -33.50480000     -75.02660000
H      -44.49170000     -33.71630000     -73.27990000
S      -46.66370000     -31.31250000     -68.84730000
S      -46.31540000     -35.21620000     -73.97290000
C      -47.06460000     -33.00510000     -69.23480000
H      -48.09200000     -33.19540000     -68.89850000
H      -46.99670000     -33.13460000     -70.33390000
C      -46.95500000     -35.30240000     -72.22400000
H      -47.86000000     -35.80650000     -72.36650000
H      -47.19640000     -34.30690000     -71.89030000
C      -46.09910000     -35.97680000     -71.16270000
H      -46.58710000     -35.77770000     -70.18590000
H      -46.11240000     -37.04800000     -71.21030000
C      -46.03130000     -33.93050000     -68.52910000
H      -46.36030000     -34.93180000     -68.54640000
H      -46.09410000     -33.53170000     -67.45130000
C      -44.63280000     -33.68590000     -69.25730000
C      -43.68450000     -32.91310000     -68.66630000
C      -44.11270000     -34.48720000     -70.34710000
H      -43.81830000     -32.26230000     -67.85440000
C      -42.78000000     -34.19000000     -70.62270000
C      -44.67160000     -35.50980000     -71.20120000
C      -43.71160000     -36.01280000     -72.01890000
S      -42.13820000     -33.04260000     -69.54710000
S      -42.14000000     -35.15460000     -71.86900000
H      -43.80430000     -36.79890000     -72.67460000
