40
Properties=species:S:1:pos:R:3 #=T CELL(abcABC):=T 1.889726e+02=T 90.00000=T Traj:=T positionsangstrom=T Step:=T 0=T Bead:=T pbc="F F F"
C      -47.59350000     -31.96350000     -74.41840000
C      -46.43230000     -32.43570000     -73.70870000
C      -46.07380000     -31.81840000     -72.52820000
C      -46.86660000     -30.78630000     -71.85140000
C      -47.95550000     -30.32130000     -72.53910000
C      -48.22890000     -30.87740000     -73.80940000
H      -47.87360000     -32.38480000     -75.39080000
H      -45.18820000     -32.19090000     -72.09280000
H      -48.49420000     -29.40690000     -72.26930000
H      -48.98310000     -30.36840000     -74.39810000
C      -46.40030000     -30.23490000     -70.55930000
H      -46.62800000     -29.13550000     -70.44500000
H      -45.32790000     -30.15610000     -70.51830000
C      -45.55430000     -33.62220000     -74.25550000
H      -45.34610000     -33.31750000     -75.32070000
H      -44.60430000     -33.62210000     -73.71780000
S      -47.05920000     -31.07650000     -69.07220000
S      -46.30770000     -35.24190000     -74.09750000
C      -47.09940000     -32.93990000     -69.59250000
H      -48.12610000     -33.21540000     -69.52200000
H      -46.77430000     -32.90460000     -70.63300000
C      -46.80830000     -35.27960000     -72.35980000
H      -47.82150000     -35.76560000     -72.32420000
H      -46.99570000     -34.27850000     -71.91560000
C      -45.79390000     -36.09800000     -71.46940000
H      -46.27180000     -36.25980000     -70.50430000
H      -45.73200000     -37.10030000     -71.80490000
C      -46.19990000     -33.89600000     -68.76730000
H      -46.69170000     -34.85360000     -68.81550000
H      -46.19890000     -33.48420000     -67.63660000
C      -44.71940000     -33.89030000     -69.15080000
C      -43.85580000     -33.15480000     -68.34750000
C      -44.06920000     -34.63880000     -70.23200000
H      -44.14010000     -32.61530000     -67.44910000
C      -42.68430000     -34.43120000     -70.18320000
C      -44.40360000     -35.59650000     -71.24880000
C      -43.36810000     -35.89030000     -72.10510000
S      -42.17500000     -33.33990000     -68.87310000
S      -41.87180000     -35.09380000     -71.61490000
H      -43.47360000     -36.51060000     -72.93340000
