40
Properties=species:S:1:pos:R:3 #=T CELL(abcABC):=T 1.889726e+02=T 90.00000=T Traj:=T positionsangstrom=T Step:=T 0=T Bead:=T pbc="F F F"
C      -44.35620000     -37.49100000     -72.12170000
C      -44.24410000     -36.36780000     -72.95180000
C      -45.42550000     -35.66500000     -73.38620000
C      -46.64750000     -36.19140000     -72.86890000
C      -46.69320000     -37.29320000     -72.00280000
C      -45.53710000     -38.01480000     -71.65210000
H      -43.56620000     -38.12740000     -71.73150000
H      -45.37090000     -34.72880000     -73.92530000
H      -47.70470000     -37.58860000     -71.57630000
H      -45.47250000     -38.85850000     -71.00230000
C      -47.89440000     -35.45940000     -73.18410000
H      -48.63720000     -36.04540000     -73.72910000
H      -47.63630000     -34.55450000     -73.90020000
C      -42.81610000     -35.87170000     -73.25390000
H      -42.36240000     -35.73850000     -72.31670000
H      -42.25010000     -36.51090000     -73.95830000
S      -48.81270000     -34.77050000     -71.75890000
S      -42.69660000     -34.13200000     -73.98130000
C      -47.71790000     -33.37610000     -71.15070000
H      -47.33370000     -32.79860000     -71.95120000
H      -48.31780000     -32.72800000     -70.64790000
C      -42.92230000     -33.07180000     -72.42960000
H      -41.96520000     -32.59570000     -72.29900000
H      -43.07490000     -33.78990000     -71.60040000
C      -44.14970000     -32.12120000     -72.51900000
H      -44.04620000     -31.44830000     -73.38030000
H      -45.03080000     -32.73540000     -72.67160000
C      -46.44290000     -33.76990000     -70.36940000
H      -45.71500000     -34.22040000     -71.04560000
H      -46.65420000     -34.60790000     -69.66270000
C      -45.91100000     -32.47120000     -69.58350000
C      -46.49880000     -32.19850000     -68.34410000
C      -45.02940000     -31.42580000     -70.10660000
H      -47.05570000     -33.02120000     -67.74880000
C      -45.01080000     -30.36430000     -69.20670000
C      -44.27420000     -31.22830000     -71.30560000
C      -43.60870000     -30.04350000     -71.23650000
S      -45.96240000     -30.59430000     -67.71940000
S      -43.89740000     -29.11390000     -69.75930000
H      -43.02570000     -29.47650000     -71.98800000
