40
Properties=species:S:1:pos:R:3 #=T CELL(abcABC):=T 1.889726e+02=T 90.00000=T Traj:=T positionsangstrom=T Step:=T 0=T Bead:=T pbc="F F F"
C      -47.45410000     -31.70350000     -74.19320000
C      -46.21550000     -32.21190000     -73.78220000
C      -45.65430000     -31.81960000     -72.57260000
C      -46.42450000     -31.14270000     -71.59380000
C      -47.70800000     -30.69090000     -71.96910000
C      -48.17760000     -30.99710000     -73.23620000
H      -47.72290000     -32.05390000     -75.16440000
H      -44.63520000     -32.09400000     -72.39690000
H      -48.35130000     -30.22420000     -71.23530000
H      -49.12600000     -30.50860000     -73.42430000
C      -45.76070000     -30.84950000     -70.23510000
H      -45.60270000     -29.74770000     -70.26930000
H      -44.78860000     -31.28360000     -70.17030000
C      -45.55880000     -33.28040000     -74.65450000
H      -45.48250000     -33.13940000     -75.75510000
H      -44.50150000     -33.39250000     -74.39460000
S      -46.88600000     -31.34100000     -68.84090000
S      -46.47070000     -34.86740000     -74.39700000
C      -47.36650000     -33.03730000     -69.41900000
H      -48.31400000     -33.18280000     -68.84330000
H      -47.48730000     -33.07990000     -70.54090000
C      -46.75060000     -34.94110000     -72.52680000
H      -47.78650000     -35.04760000     -72.33910000
H      -46.44950000     -34.01520000     -72.07870000
C      -45.93660000     -36.03580000     -71.87290000
H      -46.51230000     -36.35690000     -70.99410000
H      -45.79230000     -36.90420000     -72.50480000
C      -46.37940000     -34.09450000     -68.87370000
H      -46.73790000     -35.08170000     -69.06540000
H      -46.41360000     -33.91470000     -67.79380000
C      -44.92400000     -33.98200000     -69.23510000
C      -44.08730000     -33.28830000     -68.40460000
C      -44.20050000     -34.54390000     -70.37440000
H      -44.38590000     -32.95740000     -67.46440000
C      -42.81220000     -34.20200000     -70.35780000
C      -44.56650000     -35.51920000     -71.42380000
C      -43.43420000     -35.93240000     -72.07430000
S      -42.42160000     -33.15730000     -69.05950000
S      -41.93610000     -35.17120000     -71.49530000
H      -43.30870000     -36.70480000     -72.86400000
