40
Properties=species:S:1:pos:R:3 #=T CELL(abcABC):=T 1.889726e+02=T 90.00000=T Traj:=T positionsangstrom=T Step:=T 0=T Bead:=T pbc="F F F"
C      -47.19950000     -31.51420000     -73.85370000
C      -46.12560000     -32.19770000     -73.37430000
C      -45.63440000     -31.82820000     -72.10830000
C      -46.23010000     -30.85730000     -71.28720000
C      -47.34620000     -30.20230000     -71.82570000
C      -47.75570000     -30.45880000     -73.12740000
H      -47.59230000     -31.64630000     -74.88460000
H      -44.72670000     -32.31680000     -71.77040000
H      -47.78080000     -29.35810000     -71.27140000
H      -48.47880000     -29.93540000     -73.66900000
C      -45.76140000     -30.65480000     -69.79950000
H      -45.80870000     -29.55060000     -69.61550000
H      -44.69210000     -30.89640000     -69.78200000
C      -45.36470000     -33.11670000     -74.27610000
H      -45.14200000     -32.57310000     -75.19860000
H      -44.39920000     -33.23640000     -73.82880000
S      -46.82880000     -31.51210000     -68.58620000
S      -46.02520000     -34.81040000     -74.57480000
C      -47.33490000     -33.14560000     -69.41980000
H      -48.43570000     -33.30550000     -69.29000000
H      -47.15970000     -32.98590000     -70.47680000
C      -46.93520000     -35.29060000     -73.08810000
H      -47.74210000     -35.93550000     -73.40860000
H      -47.46950000     -34.41460000     -72.65000000
C      -46.16300000     -36.02050000     -72.01320000
H      -46.82810000     -36.12890000     -71.20470000
H      -45.89630000     -37.03540000     -72.27280000
C      -46.58400000     -34.32780000     -68.86670000
H      -46.98820000     -35.14880000     -69.43040000
H      -46.79630000     -34.53910000     -67.73350000
C      -45.03180000     -34.21780000     -69.18560000
C      -44.02520000     -33.77720000     -68.31900000
C      -44.41990000     -34.73220000     -70.43020000
H      -44.03630000     -33.38370000     -67.33460000
C      -43.10230000     -34.29190000     -70.52940000
C      -44.82800000     -35.47030000     -71.60690000
C      -43.72750000     -35.70060000     -72.42660000
S      -42.51240000     -33.58650000     -69.07180000
S      -42.27810000     -34.83450000     -72.03580000
H      -43.76480000     -36.29380000     -73.37310000
