40
Properties=species:S:1:pos:R:3 #=T CELL(abcABC):=T 1.889726e+02=T 90.00000=T Traj:=T positionsangstrom=T Step:=T 0=T Bead:=T pbc="F F F"
C      -47.00000000     -30.96610000     -73.76880000
C      -45.92860000     -31.81810000     -73.36700000
C      -45.54610000     -31.81260000     -72.00710000
C      -46.13980000     -30.94230000     -71.10620000
C      -47.18420000     -30.14040000     -71.55810000
C      -47.56430000     -30.07790000     -72.92150000
H      -47.30020000     -30.94200000     -74.86800000
H      -44.84700000     -32.54390000     -71.67770000
H      -47.57940000     -29.46190000     -70.74350000
H      -48.35250000     -29.40580000     -73.27190000
C      -45.78540000     -31.03590000     -69.62650000
H      -45.62420000     -30.08450000     -69.14390000
H      -44.95320000     -31.70760000     -69.45930000
C      -45.32500000     -32.87980000     -74.30480000
H      -45.08740000     -32.48180000     -75.28790000
H      -44.40510000     -33.28110000     -73.94860000
S      -47.14490000     -31.81170000     -68.52150000
S      -46.49970000     -34.24610000     -74.61450000
C      -47.42380000     -33.36970000     -69.38350000
H      -48.38340000     -33.63160000     -69.08450000
H      -47.53260000     -33.21100000     -70.51260000
C      -47.00780000     -34.66110000     -72.83750000
H      -48.02180000     -34.86620000     -72.79460000
H      -46.80210000     -33.76150000     -72.25730000
C      -46.14800000     -35.85140000     -72.29670000
H      -46.60080000     -36.42220000     -71.51680000
H      -46.11490000     -36.63310000     -73.03390000
C      -46.44190000     -34.55180000     -69.15200000
H      -46.81740000     -35.34540000     -69.81700000
H      -46.60200000     -35.02940000     -68.15030000
C      -44.92910000     -34.40830000     -69.33700000
C      -44.00800000     -33.89170000     -68.42540000
C      -44.36630000     -34.72520000     -70.62110000
H      -44.25050000     -33.47360000     -67.44270000
C      -43.01550000     -34.44160000     -70.63160000
C      -44.71440000     -35.55580000     -71.79730000
C      -43.65700000     -35.77140000     -72.63380000
S      -42.42180000     -33.88350000     -69.04520000
S      -42.11580000     -35.14300000     -72.01840000
H      -43.85520000     -36.32710000     -73.53410000
