40
Properties=species:S:1:pos:R:3 #=T CELL(abcABC):=T 1.889726e+02=T 90.00000=T Traj:=T positionsangstrom=T Step:=T 0=T Bead:=T pbc="F F F"
C      -46.37340000     -30.39030000     -73.32850000
C      -45.51560000     -31.46510000     -73.02750000
C      -45.29610000     -31.75980000     -71.67160000
C      -45.80180000     -30.95810000     -70.61320000
C      -46.54580000     -29.79610000     -70.93940000
C      -46.71210000     -29.53480000     -72.27870000
H      -46.74840000     -30.09670000     -74.37520000
H      -44.51020000     -32.55100000     -71.45240000
H      -46.93350000     -29.17160000     -70.22850000
H      -47.46110000     -28.72280000     -72.56020000
C      -45.40360000     -31.30280000     -69.24480000
H      -45.32930000     -30.39170000     -68.63280000
H      -44.45580000     -31.89830000     -69.15580000
C      -45.20550000     -32.44610000     -74.11240000
H      -44.90730000     -31.96480000     -75.06600000
H      -44.35640000     -33.08820000     -73.75320000
S      -46.68580000     -32.17250000     -68.29680000
S      -46.63830000     -33.52810000     -74.58430000
C      -47.29640000     -33.53190000     -69.42720000
H      -48.40430000     -33.61500000     -69.32490000
H      -47.07480000     -33.23550000     -70.36660000
C      -47.37640000     -34.15920000     -73.04900000
H      -48.44230000     -34.33490000     -73.14850000
H      -47.41510000     -33.37240000     -72.31120000
C      -46.66070000     -35.46480000     -72.52850000
H      -47.14930000     -35.92470000     -71.66430000
H      -46.68310000     -36.22380000     -73.27260000
C      -46.66350000     -34.85290000     -69.07870000
H      -47.12600000     -35.73180000     -69.50230000
H      -46.67540000     -34.97670000     -67.98270000
C      -45.20440000     -34.83370000     -69.53100000
C      -44.15500000     -34.49860000     -68.64960000
C      -44.60780000     -35.00140000     -70.85530000
H      -44.26460000     -34.41300000     -67.57000000
C      -43.21750000     -34.92070000     -70.95430000
C      -45.22500000     -35.33730000     -72.11700000
C      -44.27030000     -35.54530000     -73.11890000
S      -42.53690000     -34.56970000     -69.35480000
S      -42.59610000     -35.32670000     -72.49430000
H      -44.24370000     -35.72320000     -74.19920000
