40
Properties=species:S:1:pos:R:3 #=T CELL(abcABC):=T 1.889726e+02=T 90.00000=T Traj:=T positionsangstrom=T Step:=T 0=T Bead:=T pbc="F F F"
C      -46.19690000     -29.96260000     -72.95140000
C      -45.41380000     -31.12820000     -72.71830000
C      -44.91040000     -31.45180000     -71.46690000
C      -45.31300000     -30.65700000     -70.30170000
C      -46.21320000     -29.66300000     -70.56270000
C      -46.67240000     -29.26080000     -71.82900000
H      -46.55820000     -29.61540000     -73.92100000
H      -44.09470000     -32.15660000     -71.45680000
H      -46.55830000     -29.10100000     -69.78790000
H      -47.24370000     -28.38080000     -72.09790000
C      -44.86720000     -31.08670000     -68.99070000
H      -44.83550000     -30.20060000     -68.29850000
H      -43.85770000     -31.60170000     -69.11770000
C      -45.02350000     -31.98220000     -73.88940000
H      -44.58130000     -31.33890000     -74.62550000
H      -44.33570000     -32.72180000     -73.61260000
S      -45.87880000     -32.50130000     -68.09230000
S      -46.52280000     -32.73730000     -74.63470000
C      -47.06930000     -33.23040000     -69.25840000
H      -48.12440000     -32.99650000     -68.93120000
H      -46.92530000     -32.77440000     -70.27630000
C      -47.31190000     -33.51060000     -73.17610000
H      -48.39780000     -33.30190000     -73.27630000
H      -47.01710000     -32.94970000     -72.28740000
C      -47.03250000     -35.02110000     -72.83020000
H      -47.66530000     -35.31810000     -72.00520000
H      -47.27850000     -35.57210000     -73.72120000
C      -46.97470000     -34.75280000     -69.35840000
H      -47.74390000     -35.17390000     -70.09850000
H      -47.20560000     -35.25410000     -68.37550000
C      -45.55560000     -35.16780000     -69.78160000
C      -44.54930000     -35.34000000     -68.85990000
C      -45.04490000     -35.33860000     -71.12980000
H      -44.68460000     -35.13380000     -67.81290000
C      -43.61990000     -35.54680000     -71.09210000
C      -45.56220000     -35.24880000     -72.48290000
C      -44.51820000     -35.49460000     -73.37910000
S      -42.94110000     -35.59280000     -69.53190000
S      -43.00510000     -35.69620000     -72.65980000
H      -44.75630000     -35.53750000     -74.42610000
