40
Properties=species:S:1:pos:R:3 #=T CELL(abcABC):=T 1.889726e+02=T 90.00000=T Traj:=T positionsangstrom=T Step:=T 0=T Bead:=T pbc="F F F"
C      -46.24270000     -29.83260000     -72.78000000
C      -45.61890000     -31.03710000     -72.63800000
C      -45.06620000     -31.43070000     -71.32660000
C      -45.33780000     -30.60290000     -70.26290000
C      -46.12430000     -29.48830000     -70.47560000
C      -46.54210000     -29.04600000     -71.70260000
H      -46.43500000     -29.52570000     -73.77640000
H      -44.62830000     -32.40020000     -71.29260000
H      -46.45750000     -28.97920000     -69.61570000
H      -47.22940000     -28.23890000     -71.80770000
C      -44.82960000     -31.05030000     -68.90300000
H      -44.96300000     -30.21140000     -68.15680000
H      -43.85910000     -31.34690000     -68.87590000
C      -45.10110000     -31.80950000     -73.80050000
H      -44.76870000     -31.15800000     -74.68910000
H      -44.22900000     -32.44310000     -73.50640000
S      -45.75940000     -32.42950000     -68.07310000
S      -46.39940000     -32.89600000     -74.63760000
C      -46.92500000     -33.03150000     -69.33580000
H      -47.89480000     -32.64930000     -69.13360000
H      -46.67530000     -32.55900000     -70.28970000
C      -47.35380000     -33.59580000     -73.15660000
H      -48.48800000     -33.50100000     -73.40120000
H      -47.25510000     -32.92920000     -72.26670000
C      -47.02360000     -35.03850000     -72.93440000
H      -47.73730000     -35.48900000     -72.19310000
H      -47.21400000     -35.59510000     -73.87560000
C      -46.94770000     -34.56790000     -69.52210000
H      -47.66110000     -34.79610000     -70.26010000
H      -47.22630000     -34.95620000     -68.58140000
C      -45.53630000     -35.10830000     -69.88930000
C      -44.66450000     -35.41520000     -68.88560000
C      -45.03200000     -35.25540000     -71.21900000
H      -44.69410000     -35.23720000     -67.85810000
C      -43.68350000     -35.63240000     -71.14320000
C      -45.57580000     -35.23330000     -72.54230000
C      -44.62220000     -35.51130000     -73.45750000
S      -43.02540000     -35.86570000     -69.50600000
S      -43.01130000     -35.81660000     -72.73300000
H      -44.79060000     -35.61320000     -74.56330000
