40
Properties=species:S:1:pos:R:3 #=T CELL(abcABC):=T 1.889726e+02=T 90.00000=T Traj:=T positionsangstrom=T Step:=T 0=T Bead:=T pbc="F F F"
C      -46.06490000     -29.70800000     -72.61080000
C      -45.23200000     -30.82200000     -72.50860000
C      -44.86790000     -31.20270000     -71.22320000
C      -45.19500000     -30.51650000     -70.08090000
C      -46.10080000     -29.47070000     -70.19880000
C      -46.46310000     -28.96100000     -71.50330000
H      -46.47620000     -29.48700000     -73.57550000
H      -44.09640000     -31.96600000     -71.13510000
H      -46.35180000     -28.89960000     -69.28970000
H      -47.17800000     -28.21820000     -71.70430000
C      -44.73720000     -31.02260000     -68.73540000
H      -44.91610000     -30.13880000     -68.06170000
H      -43.70020000     -31.25480000     -68.71640000
C      -44.85050000     -31.67290000     -73.62680000
H      -44.19520000     -31.09200000     -74.28980000
H      -44.23510000     -32.53020000     -73.26500000
S      -45.77120000     -32.43090000     -68.05270000
S      -46.31880000     -32.28330000     -74.51600000
C      -47.00160000     -33.06360000     -69.29100000
H      -48.04240000     -32.88470000     -68.86540000
H      -46.89480000     -32.52480000     -70.20080000
C      -47.23010000     -33.11270000     -73.08470000
H      -48.30440000     -32.97930000     -73.18600000
H      -46.87850000     -32.72950000     -72.14830000
C      -47.01650000     -34.61990000     -72.99750000
H      -47.63180000     -34.94610000     -72.12670000
H      -47.31100000     -35.24780000     -73.83420000
C      -46.86650000     -34.58680000     -69.44760000
H      -47.64790000     -34.93860000     -70.10210000
H      -47.17700000     -34.94200000     -68.48630000
C      -45.52900000     -35.10510000     -69.91020000
C      -44.64040000     -35.60770000     -69.00300000
C      -45.07700000     -35.32190000     -71.28220000
H      -44.82520000     -35.78010000     -67.84710000
C      -43.85330000     -35.98270000     -71.32240000
C      -45.63190000     -35.09720000     -72.65010000
C      -44.80540000     -35.58460000     -73.67860000
S      -43.23190000     -36.39730000     -69.75680000
S      -43.31240000     -36.40270000     -73.01360000
H      -45.06030000     -35.59790000     -74.68850000
