40
Properties=species:S:1:pos:R:3 #=T CELL(abcABC):=T 1.889726e+02=T 90.00000=T Traj:=T positionsangstrom=T Step:=T 0=T Bead:=T pbc="F F F"
C      -45.51120000     -29.94620000     -72.66190000
C      -44.86280000     -31.18630000     -72.45850000
C      -44.47840000     -31.59580000     -71.17600000
C      -44.92080000     -30.80450000     -70.09520000
C      -45.71180000     -29.64220000     -70.23230000
C      -45.97250000     -29.20640000     -71.54590000
H      -45.66040000     -29.60870000     -73.70080000
H      -43.90660000     -32.51970000     -71.01990000
H      -46.02930000     -28.96680000     -69.42800000
H      -46.35570000     -28.20010000     -71.62570000
C      -44.43520000     -31.09190000     -68.70990000
H      -44.39900000     -30.17300000     -68.11360000
H      -43.41980000     -31.43630000     -68.75940000
C      -44.61910000     -32.04610000     -73.70240000
H      -43.94640000     -31.48820000     -74.41320000
H      -44.15030000     -32.97490000     -73.40960000
S      -45.46280000     -32.43080000     -67.84470000
S      -46.24020000     -32.34110000     -74.55810000
C      -46.89260000     -32.97550000     -68.98930000
H      -47.82110000     -32.55800000     -68.59220000
H      -46.70770000     -32.39950000     -69.90020000
C      -47.37790000     -32.93080000     -73.20280000
H      -48.39470000     -32.57300000     -73.44630000
H      -46.99560000     -32.43930000     -72.25080000
C      -47.42230000     -34.42350000     -72.96280000
H      -48.28250000     -34.51890000     -72.30260000
H      -47.86650000     -34.90810000     -73.86440000
C      -47.00130000     -34.41970000     -69.34140000
H      -47.80760000     -34.58620000     -70.05150000
H      -47.16780000     -34.92210000     -68.37910000
C      -45.75630000     -35.07390000     -69.90900000
C      -44.75540000     -35.44240000     -69.09650000
C      -45.50310000     -35.32560000     -71.31060000
H      -44.84610000     -35.68580000     -67.96520000
C      -44.25190000     -35.95300000     -71.42630000
C      -46.06280000     -35.01170000     -72.60320000
C      -45.25770000     -35.49550000     -73.57720000
S      -43.40380000     -36.20530000     -69.96070000
S      -43.72140000     -36.14380000     -73.02410000
H      -45.40700000     -35.45920000     -74.59370000
