40
Properties=species:S:1:pos:R:3 #=T CELL(abcABC):=T 1.889726e+02=T 90.00000=T Traj:=T positionsangstrom=T Step:=T 0=T Bead:=T pbc="F F F"
C      -45.33540000     -29.82640000     -72.40830000
C      -44.87460000     -31.13590000     -72.44990000
C      -44.41250000     -31.77860000     -71.25620000
C      -44.47120000     -31.03190000     -70.08540000
C      -44.93930000     -29.69820000     -70.00230000
C      -45.40970000     -29.16760000     -71.19560000
H      -45.67770000     -29.36500000     -73.30290000
H      -44.11770000     -32.81090000     -71.19000000
H      -45.13530000     -29.19870000     -69.04730000
H      -45.83670000     -28.13460000     -71.21360000
C      -44.18780000     -31.70660000     -68.79180000
H      -43.74810000     -31.03180000     -68.09230000
H      -43.47140000     -32.49090000     -68.93350000
C      -44.68090000     -31.84330000     -73.78940000
H      -44.20380000     -31.21960000     -74.57030000
H      -43.94400000     -32.71140000     -73.76320000
S      -45.74130000     -32.31790000     -67.98300000
S      -46.24640000     -32.54210000     -74.55420000
C      -46.95170000     -32.74890000     -69.33500000
H      -47.91350000     -32.23080000     -69.06420000
H      -46.60810000     -32.33470000     -70.30430000
C      -47.47960000     -32.90970000     -73.18580000
H      -48.47080000     -32.44650000     -73.50430000
H      -47.09830000     -32.42590000     -72.24900000
C      -47.55440000     -34.46950000     -72.83830000
H      -48.18540000     -34.47410000     -71.95070000
H      -48.10740000     -34.95830000     -73.62860000
C      -47.01220000     -34.26030000     -69.31890000
H      -47.95440000     -34.59280000     -69.78430000
H      -47.02030000     -34.60770000     -68.30310000
C      -45.78340000     -34.89460000     -69.92510000
C      -44.84930000     -35.51160000     -69.10960000
C      -45.48210000     -35.12640000     -71.29380000
H      -44.78740000     -35.26970000     -68.08470000
C      -44.24250000     -35.75350000     -71.44320000
C      -46.20910000     -34.97430000     -72.54030000
C      -45.47640000     -35.48770000     -73.58670000
S      -43.44510000     -36.13950000     -69.91530000
S      -43.96250000     -36.19580000     -73.11080000
H      -46.01250000     -35.67590000     -74.54900000
