40
Properties=species:S:1:pos:R:3 #=T CELL(abcABC):=T 1.889726e+02=T 90.00000=T Traj:=T positionsangstrom=T Step:=T 0=T Bead:=T pbc="F F F"
C      -44.28570000     -29.86390000     -72.49280000
C      -44.38800000     -31.26440000     -72.46260000
C      -44.22320000     -31.98390000     -71.26710000
C      -44.25720000     -31.33620000     -70.02770000
C      -44.31350000     -29.95060000     -70.08040000
C      -44.16980000     -29.19930000     -71.23800000
H      -44.23070000     -29.38210000     -73.43360000
H      -44.19840000     -33.09340000     -71.24450000
H      -44.31130000     -29.50550000     -69.02700000
H      -44.13780000     -28.10130000     -71.14030000
C      -44.26730000     -32.08850000     -68.76200000
H      -43.54510000     -31.57140000     -68.09100000
H      -43.78010000     -33.02780000     -68.83330000
C      -44.67290000     -32.08660000     -73.72000000
H      -44.29810000     -31.63810000     -74.62340000
H      -44.38040000     -33.16960000     -73.63290000
S      -45.89400000     -31.95190000     -67.90410000
S      -46.53280000     -32.12200000     -74.14920000
C      -47.01330000     -32.80330000     -68.99570000
H      -48.02430000     -32.49280000     -68.61170000
H      -46.91470000     -32.43380000     -69.95770000
C      -47.56890000     -32.59940000     -72.73430000
H      -48.50720000     -32.02030000     -72.87050000
H      -47.25360000     -32.10710000     -71.80180000
C      -47.73760000     -34.09330000     -72.48620000
H      -48.23070000     -34.23870000     -71.54620000
H      -48.27000000     -34.57350000     -73.29330000
C      -46.90860000     -34.34510000     -69.05970000
H      -47.92420000     -34.62760000     -69.40620000
H      -46.83330000     -34.74230000     -68.07760000
C      -45.80850000     -35.01680000     -69.91370000
C      -44.79690000     -35.68590000     -69.29220000
C      -45.62640000     -35.09360000     -71.35100000
H      -44.80780000     -36.00900000     -68.19580000
C      -44.53410000     -35.84120000     -71.76880000
C      -46.41810000     -34.80830000     -72.55260000
C      -45.89270000     -35.44250000     -73.66700000
S      -43.64890000     -36.50000000     -70.37440000
S      -44.31920000     -36.11610000     -73.48790000
H      -46.26810000     -35.28350000     -74.68770000
