40
Properties=species:S:1:pos:R:3 #=T CELL(abcABC):=T 1.889726e+02=T 90.00000=T Traj:=T positionsangstrom=T Step:=T 0=T Bead:=T pbc="F F F"
C      -44.28440000     -29.76560000     -72.34060000
C      -44.46430000     -31.13020000     -72.43320000
C      -44.37230000     -31.79360000     -71.21340000
C      -44.09280000     -31.16570000     -69.98520000
C      -44.02660000     -29.74970000     -69.91830000
C      -44.14950000     -29.04530000     -71.14440000
H      -44.25320000     -29.27120000     -73.33230000
H      -44.36890000     -32.86170000     -71.18540000
H      -43.71830000     -29.31760000     -69.02480000
H      -43.92300000     -27.99070000     -71.13790000
C      -43.85170000     -32.05380000     -68.72510000
H      -43.14700000     -31.63370000     -67.97010000
H      -43.49660000     -33.02880000     -69.12880000
C      -44.61690000     -31.83000000     -73.72000000
H      -44.07800000     -31.30110000     -74.57300000
H      -44.37270000     -32.91950000     -73.61960000
S      -45.46440000     -32.31570000     -67.78250000
S      -46.39220000     -31.93680000     -74.39420000
C      -46.80700000     -32.90060000     -68.99880000
H      -47.65670000     -32.49940000     -68.46420000
H      -46.55170000     -32.44090000     -69.96850000
C      -47.41300000     -32.26850000     -72.89900000
H      -48.38850000     -31.74000000     -73.01030000
H      -46.92710000     -31.68400000     -72.10400000
C      -47.69730000     -33.75520000     -72.48800000
H      -48.15680000     -33.62230000     -71.55060000
H      -48.46740000     -34.12640000     -73.17440000
C      -47.00150000     -34.43620000     -69.13660000
H      -47.98090000     -34.70730000     -69.46950000
H      -46.98140000     -34.75410000     -68.09090000
C      -45.92810000     -35.17480000     -69.87800000
C      -44.82600000     -35.81840000     -69.34980000
C      -45.87380000     -35.23230000     -71.33850000
H      -44.50800000     -35.79400000     -68.35850000
C      -44.83830000     -36.11510000     -71.76970000
C      -46.59860000     -34.69100000     -72.44230000
C      -46.13240000     -35.28480000     -73.59190000
S      -43.81400000     -36.63270000     -70.46670000
S      -44.76290000     -36.39100000     -73.45250000
H      -46.62110000     -35.07600000     -74.51900000
