40
Properties=species:S:1:pos:R:3 #=T CELL(abcABC):=T 1.889726e+02=T 90.00000=T Traj:=T positionsangstrom=T Step:=T 0=T Bead:=T pbc="F F F"
C      -44.21030000     -29.93450000     -72.25560000
C      -44.47440000     -31.30140000     -72.43530000
C      -44.05290000     -32.17920000     -71.40210000
C      -43.39800000     -31.76770000     -70.26200000
C      -43.18180000     -30.41160000     -70.10770000
C      -43.56340000     -29.47670000     -71.06650000
H      -44.55350000     -29.17620000     -72.94140000
H      -44.24320000     -33.25760000     -71.56630000
H      -42.86470000     -29.99550000     -69.19470000
H      -43.45300000     -28.42030000     -70.85090000
C      -43.10030000     -32.74240000     -69.14900000
H      -42.19330000     -32.54500000     -68.63020000
H      -43.10160000     -33.74390000     -69.47530000
C      -45.00630000     -31.91030000     -73.72870000
H      -44.48120000     -31.42370000     -74.51300000
H      -44.72220000     -32.94000000     -73.69720000
S      -44.40550000     -32.76640000     -67.76160000
S      -46.76640000     -31.47390000     -74.03900000
C      -46.08030000     -32.51380000     -68.57220000
H      -46.73510000     -32.06840000     -67.82620000
H      -46.14930000     -31.95750000     -69.47650000
C      -47.58670000     -32.01560000     -72.47730000
H      -48.49860000     -31.37580000     -72.24610000
H      -46.90890000     -31.85380000     -71.64410000
C      -48.11290000     -33.44150000     -72.28780000
H      -48.52590000     -33.54740000     -71.27780000
H      -48.86910000     -33.62670000     -73.03860000
C      -46.75230000     -33.83150000     -68.90480000
H      -47.76480000     -33.68730000     -69.29760000
H      -46.96480000     -34.46340000     -67.98000000
C      -45.94890000     -34.79620000     -69.95610000
C      -45.02750000     -35.68760000     -69.43420000
C      -46.20660000     -34.99040000     -71.41140000
H      -44.74190000     -35.60440000     -68.41010000
C      -45.32450000     -35.98300000     -71.90980000
C      -46.97540000     -34.38970000     -72.52020000
C      -46.81250000     -35.09580000     -73.72460000
S      -44.29800000     -36.72130000     -70.62120000
S      -45.44410000     -36.22280000     -73.64870000
H      -47.35840000     -34.92650000     -74.65710000
