40
Properties=species:S:1:pos:R:3 #=T CELL(abcABC):=T 1.889726e+02=T 90.00000=T Traj:=T positionsangstrom=T Step:=T 0=T Bead:=T pbc="F F F"
C      -44.51100000     -37.51030000     -72.13990000
C      -44.31950000     -36.30750000     -72.91590000
C      -45.45390000     -35.58590000     -73.28750000
C      -46.72730000     -36.01840000     -72.93540000
C      -46.96540000     -37.19670000     -72.23950000
C      -45.78630000     -37.95150000     -71.76430000
H      -43.59470000     -38.03990000     -71.92880000
H      -45.37850000     -34.62250000     -73.82090000
H      -48.01240000     -37.54130000     -71.96890000
H      -45.93550000     -38.85630000     -71.18180000
C      -47.98180000     -35.19910000     -73.26500000
H      -48.61710000     -35.82120000     -73.81100000
H      -47.89210000     -34.29560000     -73.89440000
C      -43.04440000     -35.96050000     -73.52750000
H      -42.19870000     -36.34850000     -72.91070000
H      -42.79010000     -36.61290000     -74.40130000
S      -48.79800000     -34.65970000     -71.70450000
S      -42.81920000     -34.19210000     -73.98640000
C      -47.81850000     -33.13690000     -71.24090000
H      -47.51620000     -32.53120000     -72.13300000
H      -48.53170000     -32.57150000     -70.64130000
C      -43.09370000     -33.37080000     -72.31940000
H      -42.18560000     -33.11910000     -71.80030000
H      -43.49660000     -34.13220000     -71.62960000
C      -44.07000000     -32.17760000     -72.45480000
H      -43.80980000     -31.60650000     -73.37230000
H      -45.10180000     -32.48180000     -72.68420000
C      -46.55860000     -33.55220000     -70.47730000
H      -45.80130000     -33.88500000     -71.14950000
H      -46.76900000     -34.40830000     -69.87950000
C      -46.02880000     -32.40010000     -69.68970000
C      -46.52670000     -32.12520000     -68.42240000
C      -44.94470000     -31.49420000     -70.03780000
H      -47.11990000     -32.68880000     -67.83940000
C      -44.69220000     -30.50780000     -69.07400000
C      -44.13710000     -31.23610000     -71.21860000
C      -43.32370000     -30.16270000     -71.16750000
S      -45.80790000     -30.62570000     -67.70040000
S      -43.57730000     -29.33710000     -69.58250000
H      -42.55670000     -29.86090000     -71.87470000
