40
Properties=species:S:1:pos:R:3 #=T CELL(abcABC):=T 1.889726e+02=T 90.00000=T Traj:=T positionsangstrom=T Step:=T 0=T Bead:=T pbc="F F F"
C      -43.84620000     -30.01090000     -72.40360000
C      -44.43180000     -31.26270000     -72.56840000
C      -44.21440000     -32.19550000     -71.56820000
C      -43.55810000     -31.88650000     -70.37120000
C      -43.10760000     -30.60630000     -70.18200000
C      -43.21430000     -29.67040000     -71.19270000
H      -43.80960000     -29.26750000     -73.20310000
H      -44.50610000     -33.30170000     -71.72360000
H      -42.47370000     -30.40300000     -69.26250000
H      -42.62760000     -28.78040000     -71.19170000
C      -43.12760000     -32.93680000     -69.31970000
H      -42.08980000     -32.80810000     -68.90720000
H      -43.10510000     -33.95720000     -69.79310000
C      -45.05260000     -31.73010000     -73.85070000
H      -44.64160000     -31.28550000     -74.77030000
H      -44.97340000     -32.85150000     -74.02160000
S      -44.29190000     -32.88480000     -67.78120000
S      -46.88880000     -31.30960000     -73.86870000
C      -45.95900000     -32.71260000     -68.62050000
H      -46.44360000     -32.05760000     -67.85220000
H      -45.77780000     -32.15100000     -69.58140000
C      -47.68260000     -31.82810000     -72.18960000
H      -48.45850000     -31.12670000     -71.90260000
H      -46.86020000     -31.64840000     -71.45760000
C      -48.20840000     -33.30640000     -72.18310000
H      -48.71920000     -33.44870000     -71.22300000
H      -49.03260000     -33.43040000     -72.90890000
C      -46.73930000     -34.04670000     -68.87850000
H      -47.64030000     -33.55850000     -69.25510000
H      -46.95560000     -34.52870000     -67.92830000
C      -46.05860000     -34.95730000     -69.83960000
C      -45.03940000     -35.80280000     -69.40170000
C      -46.28250000     -34.95470000     -71.33420000
H      -44.76030000     -35.93480000     -68.40760000
C      -45.43340000     -35.96940000     -71.85480000
C      -47.03160000     -34.32670000     -72.36530000
C      -46.79810000     -34.90470000     -73.63610000
S      -44.25850000     -36.66470000     -70.73670000
S      -45.54750000     -36.06920000     -73.58740000
H      -47.29080000     -34.59940000     -74.55530000
