40
Properties=species:S:1:pos:R:3 #=T CELL(abcABC):=T 1.889726e+02=T 90.00000=T Traj:=T positionsangstrom=T Step:=T 0=T Bead:=T pbc="F F F"
C      -44.77420000     -32.08270000     -73.05560000
C      -45.69160000     -32.99420000     -73.56700000
C      -47.01560000     -32.88400000     -73.10050000
C      -47.36200000     -32.04640000     -72.00970000
C      -46.36900000     -31.19810000     -71.44850000
C      -45.10520000     -31.14480000     -72.08640000
H      -43.72890000     -32.28500000     -73.32450000
H      -47.78600000     -33.55020000     -73.54260000
H      -46.40600000     -30.60410000     -70.48990000
H      -44.35080000     -30.42500000     -71.69410000
C      -48.79280000     -32.00060000     -71.53030000
H      -49.50450000     -32.14700000     -72.36910000
H      -49.07270000     -31.02670000     -71.08710000
C      -45.32390000     -34.02070000     -74.56890000
H      -46.04630000     -34.87520000     -74.67450000
H      -45.42090000     -33.55550000     -75.54950000
S      -49.07990000     -33.32300000     -70.17030000
S      -43.60350000     -34.80640000     -74.50820000
C      -47.97780000     -34.81670000     -70.56370000
H      -48.66300000     -35.63340000     -70.38550000
H      -47.63690000     -34.83860000     -71.55630000
C      -43.79170000     -36.18970000     -73.22250000
H      -42.80400000     -36.48490000     -72.92530000
H      -44.40480000     -36.96150000     -73.62610000
C      -44.45340000     -35.67010000     -71.95540000
H      -45.50320000     -35.36660000     -72.06810000
H      -44.51950000     -36.56840000     -71.30530000
C      -46.75410000     -35.05930000     -69.62610000
H      -46.28460000     -35.98600000     -69.90930000
H      -47.20300000     -35.21950000     -68.65030000
C      -45.70220000     -34.00160000     -69.43940000
C      -45.94660000     -32.99670000     -68.55520000
C      -44.40130000     -33.84020000     -70.03570000
H      -46.93030000     -32.83460000     -68.03870000
C      -43.65880000     -32.76270000     -69.62290000
C      -43.74650000     -34.56550000     -71.10080000
C      -42.46010000     -34.09320000     -71.39040000
S      -44.63910000     -31.78700000     -68.45890000
S      -42.08950000     -32.67250000     -70.43410000
H      -41.79660000     -34.50270000     -72.18070000
