40
Properties=species:S:1:pos:R:3 #=T CELL(abcABC):=T 1.889726e+02=T 90.00000=T Traj:=T positionsangstrom=T Step:=T 0=T Bead:=T pbc="F F F"
C      -43.72210000     -30.08670000     -72.56470000
C      -44.26760000     -31.37460000     -72.77660000
C      -44.03430000     -32.36130000     -71.80460000
C      -43.21380000     -32.20970000     -70.68450000
C      -42.67740000     -30.91690000     -70.47240000
C      -42.84940000     -29.90950000     -71.43600000
H      -43.87170000     -29.24240000     -73.24410000
H      -44.53690000     -33.39750000     -71.90890000
H      -42.07060000     -30.71170000     -69.51990000
H      -42.28000000     -28.98250000     -71.33520000
C      -43.06830000     -33.24010000     -69.66160000
H      -42.03870000     -33.26720000     -69.29530000
H      -43.29760000     -34.19350000     -70.04210000
C      -45.21780000     -31.53190000     -73.94250000
H      -44.94260000     -30.80040000     -74.72300000
H      -45.22430000     -32.50650000     -74.38670000
S      -44.18510000     -32.92790000     -68.17970000
S      -46.96170000     -31.00080000     -73.48260000
C      -45.96460000     -32.86450000     -68.64750000
H      -46.43300000     -32.36050000     -67.78980000
H      -46.18290000     -32.25360000     -69.57850000
C      -47.46550000     -31.65670000     -71.88610000
H      -48.10910000     -30.87640000     -71.44360000
H      -46.57340000     -31.70590000     -71.20510000
C      -48.05390000     -33.02610000     -71.69430000
H      -48.38610000     -33.16820000     -70.68520000
H      -49.00980000     -33.02000000     -72.22440000
C      -46.71130000     -34.18230000     -68.62860000
H      -47.80420000     -34.02770000     -68.76730000
H      -46.45040000     -34.61380000     -67.67930000
C      -46.21390000     -35.11980000     -69.69680000
C      -45.37450000     -36.18110000     -69.37290000
C      -46.34570000     -34.96860000     -71.11550000
H      -45.07430000     -36.59140000     -68.42870000
C      -45.53900000     -35.90180000     -71.85170000
C      -47.11670000     -34.14100000     -72.10250000
C      -46.78560000     -34.41740000     -73.41070000
S      -44.57410000     -36.85870000     -70.75980000
S      -45.71990000     -35.75640000     -73.60190000
H      -47.30590000     -33.95570000     -74.22870000
