40
Properties=species:S:1:pos:R:3 #=T CELL(abcABC):=T 1.889726e+02=T 90.00000=T Traj:=T positionsangstrom=T Step:=T 0=T Bead:=T pbc="F F F"
C      -43.53860000     -30.00030000     -72.60080000
C      -44.18060000     -31.21000000     -72.90640000
C      -43.94680000     -32.28910000     -72.05570000
C      -43.05780000     -32.28720000     -70.92460000
C      -42.30400000     -31.07420000     -70.77540000
C      -42.49400000     -30.02410000     -71.63990000
H      -43.70960000     -29.09160000     -73.23330000
H      -44.42410000     -33.27680000     -72.27030000
H      -41.64180000     -31.01670000     -69.91020000
H      -41.86290000     -29.16780000     -71.43250000
C      -42.85940000     -33.46480000     -70.10160000
H      -41.83870000     -33.59730000     -69.96700000
H      -43.36980000     -34.27200000     -70.53880000
C      -45.28910000     -31.26710000     -74.00390000
H      -45.06450000     -30.57350000     -74.78690000
H      -45.42850000     -32.31700000     -74.34240000
S      -43.57280000     -33.26170000     -68.38560000
S      -47.03650000     -30.80180000     -73.44820000
C      -45.38010000     -32.74830000     -68.66840000
H      -45.66150000     -31.91960000     -67.89270000
H      -45.48580000     -32.24420000     -69.61720000
C      -47.17510000     -31.52150000     -71.65510000
H      -47.70310000     -30.85310000     -70.97870000
H      -46.21940000     -31.64340000     -71.15480000
C      -48.10670000     -32.83040000     -71.52700000
H      -48.54960000     -32.83730000     -70.53140000
H      -48.78280000     -32.66960000     -72.32520000
C      -46.39900000     -33.90060000     -68.51560000
H      -47.47060000     -33.51030000     -68.73710000
H      -46.37720000     -34.20860000     -67.43620000
C      -46.15250000     -34.98790000     -69.53900000
C      -45.44120000     -36.11010000     -69.26240000
C      -46.51330000     -34.92540000     -70.96390000
H      -44.91540000     -36.45930000     -68.37880000
C      -45.93690000     -35.95060000     -71.76320000
C      -47.37250000     -34.06550000     -71.80430000
C      -47.22340000     -34.35860000     -73.13770000
S      -45.12490000     -37.11910000     -70.70880000
S      -46.27740000     -35.83010000     -73.41650000
H      -47.82480000     -33.90320000     -73.87390000
