40
Properties=species:S:1:pos:R:3 #=T CELL(abcABC):=T 1.889726e+02=T 90.00000=T Traj:=T positionsangstrom=T Step:=T 0=T Bead:=T pbc="F F F"
C      -43.50880000     -30.01050000     -72.67560000
C      -44.19280000     -31.23490000     -72.87020000
C      -43.94410000     -32.30260000     -71.95520000
C      -42.94560000     -32.27370000     -70.96630000
C      -42.25780000     -31.04720000     -70.83380000
C      -42.51800000     -29.93950000     -71.66250000
H      -43.77780000     -29.14290000     -73.28330000
H      -44.48510000     -33.20680000     -72.06900000
H      -41.56030000     -30.86470000     -70.05000000
H      -41.94550000     -29.03730000     -71.56720000
C      -42.66860000     -33.57840000     -70.17590000
H      -41.56600000     -33.74930000     -70.01120000
H      -43.17870000     -34.53030000     -70.58000000
C      -45.21000000     -31.41230000     -73.90990000
H      -44.98220000     -30.81520000     -74.75460000
H      -45.32200000     -32.37420000     -74.19110000
S      -43.49240000     -33.33050000     -68.51680000
S      -46.91850000     -30.79570000     -73.30240000
C      -45.24650000     -32.70630000     -68.80480000
H      -45.48520000     -31.87070000     -68.18830000
H      -45.31000000     -32.23440000     -69.74820000
C      -47.11830000     -31.48120000     -71.46680000
H      -47.68680000     -30.78360000     -70.84140000
H      -46.17880000     -31.49930000     -70.98290000
C      -47.93370000     -32.74660000     -71.36940000
H      -48.38650000     -32.92250000     -70.31340000
H      -48.82010000     -32.40060000     -71.90930000
C      -46.34910000     -33.75720000     -68.62050000
H      -47.31910000     -33.24310000     -68.76640000
H      -46.12800000     -34.14870000     -67.63590000
C      -46.15560000     -34.84010000     -69.62370000
C      -45.38290000     -35.93530000     -69.36270000
C      -46.61680000     -34.83200000     -71.04210000
H      -44.89670000     -36.24890000     -68.43280000
C      -46.17630000     -36.00400000     -71.66740000
C      -47.42270000     -34.01140000     -71.87710000
C      -47.56240000     -34.51970000     -73.13550000
S      -45.12360000     -37.06850000     -70.70270000
S      -46.57060000     -35.97270000     -73.37860000
H      -48.24580000     -34.12340000     -73.87350000
