40
Properties=species:S:1:pos:R:3 #=T CELL(abcABC):=T 1.889726e+02=T 90.00000=T Traj:=T positionsangstrom=T Step:=T 0=T Bead:=T pbc="F F F"
C      -43.81250000     -30.14060000     -72.63290000
C      -44.46160000     -31.37330000     -72.74590000
C      -44.05110000     -32.44930000     -71.90940000
C      -42.99370000     -32.36040000     -71.01290000
C      -42.29360000     -31.13380000     -71.00320000
C      -42.73780000     -30.04020000     -71.76430000
H      -44.07990000     -29.36130000     -73.36990000
H      -44.72420000     -33.31230000     -71.92030000
H      -41.29240000     -31.08520000     -70.47580000
H      -42.22430000     -29.10600000     -71.64170000
C      -42.46150000     -33.55750000     -70.27580000
H      -41.36310000     -33.48300000     -70.18850000
H      -42.59270000     -34.49170000     -70.87670000
C      -45.52020000     -31.62430000     -73.77630000
H      -45.28330000     -31.25910000     -74.72700000
H      -45.66050000     -32.67530000     -73.92900000
S      -42.96260000     -33.47090000     -68.42590000
S      -47.08670000     -30.82800000     -73.28720000
C      -44.61470000     -32.70870000     -68.49910000
H      -44.72030000     -32.18380000     -67.55190000
H      -44.70510000     -32.02200000     -69.33280000
C      -47.35660000     -31.35120000     -71.59500000
H      -47.96790000     -30.59450000     -71.17480000
H      -46.39380000     -31.38730000     -71.02830000
C      -48.12460000     -32.64560000     -71.35310000
H      -48.28290000     -32.70740000     -70.26980000
H      -49.17250000     -32.51130000     -71.67820000
C      -45.84560000     -33.67120000     -68.68500000
H      -46.72650000     -33.00330000     -68.63510000
H      -45.93000000     -34.15750000     -67.66620000
C      -45.83710000     -34.64530000     -69.80950000
C      -45.07070000     -35.74590000     -69.59530000
C      -46.57510000     -34.70080000     -71.02530000
H      -44.61260000     -35.95510000     -68.63310000
C      -46.26210000     -35.89310000     -71.67650000
C      -47.49740000     -33.86360000     -71.77770000
C      -47.79970000     -34.48180000     -72.95740000
S      -45.12920000     -36.98620000     -70.89580000
S      -46.92520000     -35.97100000     -73.27190000
H      -48.32940000     -34.01660000     -73.82760000
