40
Properties=species:S:1:pos:R:3 #=T CELL(abcABC):=T 1.889726e+02=T 90.00000=T Traj:=T positionsangstrom=T Step:=T 0=T Bead:=T pbc="F F F"
C      -44.55360000     -37.45780000     -72.31670000
C      -44.45040000     -36.25750000     -73.01670000
C      -45.61210000     -35.53750000     -73.39140000
C      -46.84990000     -35.96670000     -72.92270000
C      -46.96240000     -37.15460000     -72.24430000
C      -45.81330000     -37.84540000     -71.86730000
H      -43.68020000     -38.09580000     -71.99120000
H      -45.56710000     -34.56610000     -73.93650000
H      -48.04650000     -37.33090000     -72.01360000
H      -45.89350000     -38.82890000     -71.37520000
C      -48.09860000     -35.12010000     -73.17790000
H      -48.90280000     -35.77880000     -73.62950000
H      -47.90800000     -34.16570000     -73.74890000
C      -43.01500000     -35.86440000     -73.36420000
H      -42.32200000     -36.03160000     -72.52990000
H      -42.81030000     -36.50230000     -74.20820000
S      -48.88350000     -34.58030000     -71.57670000
S      -42.75610000     -34.13290000     -74.02440000
C      -47.62070000     -33.33070000     -71.07240000
H      -47.22600000     -32.79570000     -71.89510000
H      -48.17720000     -32.53040000     -70.51340000
C      -43.00770000     -33.21310000     -72.43010000
H      -42.05510000     -32.68510000     -72.20420000
H      -43.16940000     -33.96560000     -71.70210000
C      -44.11980000     -32.17970000     -72.49760000
H      -43.93900000     -31.54120000     -73.41110000
H      -45.04200000     -32.71110000     -72.61170000
C      -46.34800000     -33.75560000     -70.28030000
H      -45.60370000     -34.18100000     -70.98970000
H      -46.57370000     -34.50280000     -69.49830000
C      -45.85890000     -32.57200000     -69.56300000
C      -46.45310000     -32.15550000     -68.39230000
C      -44.97530000     -31.54410000     -70.10660000
H      -47.40530000     -32.44850000     -68.05560000
C      -44.81370000     -30.48480000     -69.18370000
C      -44.05920000     -31.36480000     -71.22770000
C      -43.18810000     -30.35830000     -71.00870000
S      -45.94400000     -30.59070000     -67.82390000
S      -43.50610000     -29.43320000     -69.61890000
H      -42.39570000     -30.01530000     -71.73610000
