40
Properties=species:S:1:pos:R:3 #=T CELL(abcABC):=T 1.889726e+02=T 90.00000=T Traj:=T positionsangstrom=T Step:=T 0=T Bead:=T pbc="F F F"
C      -43.95970000     -30.42110000     -72.71800000
C      -44.59750000     -31.71230000     -72.83850000
C      -43.98540000     -32.82070000     -72.24120000
C      -42.79480000     -32.58830000     -71.54530000
C      -42.17220000     -31.30190000     -71.43440000
C      -42.82370000     -30.16680000     -71.96130000
H      -44.35150000     -29.56620000     -73.25370000
H      -44.34290000     -33.88060000     -72.31860000
H      -41.15430000     -31.19910000     -70.96630000
H      -42.48940000     -29.12570000     -71.87420000
C      -42.22570000     -33.68330000     -70.71340000
H      -41.15930000     -33.73430000     -70.88410000
H      -42.65220000     -34.71090000     -70.89960000
C      -45.86790000     -31.81800000     -73.59440000
H      -45.71710000     -31.39210000     -74.58750000
H      -46.12410000     -32.78360000     -73.86020000
S      -42.63160000     -33.29220000     -68.86350000
S      -47.28180000     -30.89880000     -72.87320000
C      -44.39070000     -32.73500000     -68.85380000
H      -44.58350000     -31.89050000     -68.17210000
H      -44.57740000     -32.29980000     -69.85910000
C      -47.18180000     -31.32500000     -71.03660000
H      -47.50440000     -30.38810000     -70.52570000
H      -46.19090000     -31.55360000     -70.71170000
C      -48.06690000     -32.46650000     -70.66290000
H      -47.96860000     -32.58690000     -69.50910000
H      -49.14120000     -32.32190000     -70.85340000
C      -45.57800000     -33.67170000     -68.57370000
H      -46.47720000     -33.15610000     -68.61780000
H      -45.53660000     -34.00680000     -67.54740000
C      -45.67380000     -34.77710000     -69.58640000
C      -44.84210000     -35.87050000     -69.63770000
C      -46.59030000     -34.71810000     -70.77440000
H      -44.07310000     -36.00150000     -68.97590000
C      -46.21730000     -35.66100000     -71.79320000
C      -47.67560000     -33.80930000     -71.27090000
C      -48.13160000     -34.22460000     -72.49450000
S      -45.05420000     -36.79230000     -71.18830000
S      -47.37630000     -35.72230000     -73.10410000
H      -48.81900000     -33.72790000     -73.12890000
