40
Properties=species:S:1:pos:R:3 #=T CELL(abcABC):=T 1.889726e+02=T 90.00000=T Traj:=T positionsangstrom=T Step:=T 0=T Bead:=T pbc="F F F"
C      -43.83310000     -30.33810000     -73.18700000
C      -44.65410000     -31.46370000     -72.94320000
C      -44.19530000     -32.56850000     -72.18120000
C      -42.89360000     -32.48670000     -71.65570000
C      -42.11930000     -31.31610000     -71.82350000
C      -42.59990000     -30.21620000     -72.49820000
H      -44.27960000     -29.43650000     -73.61110000
H      -44.89930000     -33.33940000     -71.89370000
H      -41.19020000     -31.22560000     -71.32970000
H      -41.94510000     -29.33670000     -72.60300000
C      -42.35870000     -33.60280000     -70.81140000
H      -41.28860000     -33.83470000     -71.01460000
H      -42.78300000     -34.56940000     -71.10910000
C      -46.00110000     -31.57460000     -73.61400000
H      -46.03860000     -30.99390000     -74.51760000
H      -46.28720000     -32.55510000     -73.78490000
S      -42.45460000     -33.33020000     -68.98960000
S      -47.37390000     -30.83230000     -72.66820000
C      -44.15280000     -32.80530000     -68.68620000
H      -44.19760000     -32.47790000     -67.67180000
H      -44.51460000     -32.06830000     -69.38430000
C      -47.09800000     -31.21810000     -70.90130000
H      -47.48730000     -30.38370000     -70.40030000
H      -45.99850000     -31.23180000     -70.81060000
C      -47.86150000     -32.48130000     -70.34590000
H      -47.72460000     -32.54370000     -69.28560000
H      -48.94760000     -32.36630000     -70.61140000
C      -45.21250000     -33.93450000     -68.51280000
H      -46.15730000     -33.54790000     -68.15810000
H      -44.89730000     -34.59500000     -67.73190000
C      -45.48850000     -34.91680000     -69.63900000
C      -44.90680000     -36.15220000     -69.72530000
C      -46.41350000     -34.70620000     -70.80130000
H      -44.18530000     -36.42330000     -68.92920000
C      -46.34700000     -35.75170000     -71.74980000
C      -47.43050000     -33.74500000     -71.15950000
C      -48.20870000     -34.20650000     -72.20740000
S      -45.20420000     -36.96170000     -71.21890000
S      -47.71520000     -35.68270000     -72.92280000
H      -49.10520000     -33.59150000     -72.51420000
