40
Properties=species:S:1:pos:R:3 #=T CELL(abcABC):=T 1.889726e+02=T 90.00000=T Traj:=T positionsangstrom=T Step:=T 0=T Bead:=T pbc="F F F"
C      -44.14370000     -30.21090000     -73.23260000
C      -44.81480000     -31.45220000     -73.12480000
C      -44.18570000     -32.55380000     -72.52440000
C      -42.93940000     -32.38820000     -71.90450000
C      -42.24270000     -31.20440000     -72.02090000
C      -42.83540000     -30.15330000     -72.76400000
H      -44.73130000     -29.35210000     -73.57020000
H      -44.81840000     -33.45860000     -72.42490000
H      -41.28370000     -31.12160000     -71.49760000
H      -42.33260000     -29.20230000     -72.82030000
C      -42.26740000     -33.52030000     -71.16890000
H      -41.20100000     -33.53560000     -71.34490000
H      -42.75600000     -34.49030000     -71.43780000
C      -46.23350000     -31.58760000     -73.61810000
H      -46.43020000     -31.05790000     -74.50540000
H      -46.50590000     -32.69240000     -73.72150000
S      -42.34440000     -33.29110000     -69.32470000
S      -47.28190000     -30.68760000     -72.31990000
C      -44.15180000     -33.05270000     -68.80740000
H      -44.19360000     -32.40190000     -67.93990000
H      -44.63030000     -32.39370000     -69.57810000
C      -46.71210000     -31.22130000     -70.59810000
H      -46.90480000     -30.35490000     -69.99000000
H      -45.63960000     -31.32160000     -70.62010000
C      -47.36370000     -32.47150000     -70.03910000
H      -46.91250000     -32.60080000     -69.02210000
H      -48.35700000     -32.27770000     -69.75740000
C      -44.93200000     -34.32240000     -68.47980000
H      -45.86610000     -34.09800000     -67.92430000
H      -44.42580000     -35.07840000     -67.84460000
C      -45.40090000     -35.15720000     -69.63580000
C      -44.86980000     -36.40740000     -69.87770000
C      -46.37200000     -34.83390000     -70.65660000
H      -44.00840000     -36.83060000     -69.32840000
C      -46.49300000     -35.80830000     -71.63570000
C      -47.32250000     -33.69760000     -70.83890000
C      -48.14390000     -33.94300000     -71.89630000
S      -45.42980000     -37.08520000     -71.34150000
S      -47.88910000     -35.52630000     -72.66190000
H      -48.83300000     -33.16590000     -72.31690000
