40
Properties=species:S:1:pos:R:3 #=T CELL(abcABC):=T 1.889726e+02=T 90.00000=T Traj:=T positionsangstrom=T Step:=T 0=T Bead:=T pbc="F F F"
C      -44.20690000     -30.23840000     -73.10270000
C      -44.89560000     -31.48130000     -73.10690000
C      -44.25570000     -32.59340000     -72.44010000
C      -42.98120000     -32.50270000     -71.93590000
C      -42.30650000     -31.25490000     -71.96770000
C      -42.84970000     -30.17150000     -72.70190000
H      -44.64570000     -29.37860000     -73.58190000
H      -44.82000000     -33.57940000     -72.36380000
H      -41.29320000     -31.21520000     -71.58740000
H      -42.29950000     -29.23130000     -72.97310000
C      -42.30080000     -33.64510000     -71.21250000
H      -41.34820000     -33.95600000     -71.65260000
H      -42.93620000     -34.59390000     -71.24260000
C      -46.35780000     -31.57140000     -73.50500000
H      -46.69720000     -31.08500000     -74.43490000
H      -46.69750000     -32.56070000     -73.48790000
S      -42.13110000     -33.25900000     -69.46460000
S      -47.48970000     -30.73520000     -72.24090000
C      -43.84840000     -32.98150000     -68.93980000
H      -43.86170000     -32.48520000     -67.94460000
H      -44.30640000     -32.46920000     -69.68680000
C      -46.66680000     -31.19470000     -70.63890000
H      -46.80880000     -30.33020000     -69.94880000
H      -45.54950000     -31.37600000     -70.76630000
C      -47.28200000     -32.46460000     -69.91690000
H      -46.71840000     -32.61220000     -69.00090000
H      -48.36430000     -32.24290000     -69.79260000
C      -44.58360000     -34.35240000     -68.70880000
H      -45.38720000     -34.04890000     -68.10040000
H      -43.94630000     -34.91550000     -67.99840000
C      -45.18270000     -35.10510000     -69.81720000
C      -44.75210000     -36.40610000     -70.04090000
C      -46.27160000     -34.76210000     -70.64050000
H      -44.02160000     -37.02920000     -69.62220000
C      -46.55190000     -35.73460000     -71.57750000
C      -47.25690000     -33.71690000     -70.74400000
C      -48.14630000     -33.82400000     -71.80690000
S      -45.74770000     -37.20950000     -71.28390000
S      -47.88480000     -35.35290000     -72.64870000
H      -48.99710000     -33.22240000     -72.01100000
