40
Properties=species:S:1:pos:R:3 #=T CELL(abcABC):=T 1.889726e+02=T 90.00000=T Traj:=T positionsangstrom=T Step:=T 0=T Bead:=T pbc="F F F"
C      -44.28730000     -30.26230000     -73.14620000
C      -44.93570000     -31.50910000     -73.04950000
C      -44.22220000     -32.57000000     -72.50280000
C      -42.91910000     -32.46710000     -71.98210000
C      -42.20010000     -31.25530000     -72.20300000
C      -42.93880000     -30.21750000     -72.71140000
H      -44.72840000     -29.40930000     -73.64650000
H      -44.72220000     -33.51510000     -72.45420000
H      -41.16430000     -31.10030000     -71.84420000
H      -42.52160000     -29.24660000     -72.79980000
C      -42.25690000     -33.73130000     -71.37200000
H      -41.30440000     -33.74870000     -71.88350000
H      -42.77920000     -34.63720000     -71.53530000
C      -46.39510000     -31.57350000     -73.50810000
H      -46.51060000     -31.03700000     -74.51940000
H      -46.70710000     -32.58300000     -73.81230000
S      -41.96430000     -33.36550000     -69.57930000
S      -47.60520000     -30.80350000     -72.23530000
C      -43.65620000     -33.12590000     -68.97940000
H      -43.50860000     -32.54390000     -68.02060000
H      -44.20790000     -32.35870000     -69.59710000
C      -46.83710000     -30.99520000     -70.64080000
H      -47.10850000     -30.20210000     -70.03650000
H      -45.75400000     -30.92070000     -70.75950000
C      -47.16750000     -32.33880000     -69.85350000
H      -46.44200000     -32.33200000     -69.05840000
H      -48.18020000     -32.23440000     -69.35770000
C      -44.58340000     -34.36820000     -68.62980000
H      -45.49950000     -33.96910000     -68.12580000
H      -44.07310000     -35.16950000     -68.04450000
C      -45.15310000     -35.15630000     -69.72990000
C      -44.75430000     -36.42130000     -70.04570000
C      -46.34730000     -34.77290000     -70.50220000
H      -43.99530000     -36.99180000     -69.57990000
C      -46.72170000     -35.77020000     -71.40710000
C      -47.21500000     -33.57470000     -70.70270000
C      -48.18880000     -33.77350000     -71.68030000
S      -45.67000000     -37.15810000     -71.36690000
S      -47.99750000     -35.30840000     -72.48960000
H      -49.02270000     -33.22190000     -71.94860000
