40
Properties=species:S:1:pos:R:3 #=T CELL(abcABC):=T 1.889726e+02=T 90.00000=T Traj:=T positionsangstrom=T Step:=T 0=T Bead:=T pbc="F F F"
C      -44.17450000     -30.31290000     -73.37280000
C      -44.91010000     -31.48650000     -73.14280000
C      -44.25310000     -32.61440000     -72.66210000
C      -42.87810000     -32.54560000     -72.33520000
C      -42.14240000     -31.32160000     -72.46750000
C      -42.80430000     -30.23760000     -73.10300000
H      -44.65830000     -29.45430000     -73.79600000
H      -44.83340000     -33.59050000     -72.48380000
H      -41.05130000     -31.38110000     -72.34730000
H      -42.25460000     -29.25640000     -73.31080000
C      -42.26350000     -33.75270000     -71.77530000
H      -41.28440000     -34.01960000     -72.31920000
H      -42.87050000     -34.67480000     -72.06750000
C      -46.41240000     -31.59970000     -73.36390000
H      -46.80240000     -31.07840000     -74.28110000
H      -46.79850000     -32.54870000     -73.47640000
S      -41.86380000     -33.64410000     -69.98840000
S      -47.31800000     -30.74880000     -71.90050000
C      -43.34540000     -32.95340000     -69.16460000
H      -43.16860000     -32.40100000     -68.18380000
H      -43.63090000     -32.12730000     -69.79400000
C      -46.66860000     -31.41150000     -70.32730000
H      -46.72350000     -30.56940000     -69.71480000
H      -45.65650000     -31.73920000     -70.50790000
C      -47.66890000     -32.41260000     -69.67110000
H      -47.44320000     -32.42840000     -68.60880000
H      -48.66010000     -31.95970000     -69.92220000
C      -44.58940000     -33.79840000     -68.79990000
H      -45.33550000     -33.08990000     -68.48280000
H      -44.17790000     -34.25400000     -67.89450000
C      -45.21380000     -34.82260000     -69.75530000
C      -44.59560000     -35.92980000     -70.20890000
C      -46.53090000     -34.68110000     -70.34510000
H      -43.65570000     -36.43290000     -69.83310000
C      -46.75450000     -35.72050000     -71.20830000
C      -47.58960000     -33.72150000     -70.40320000
C      -48.59040000     -34.09440000     -71.28490000
S      -45.54950000     -36.89900000     -71.37860000
S      -48.26690000     -35.53910000     -72.08380000
H      -49.59720000     -33.55340000     -71.29800000
