40
Properties=species:S:1:pos:R:3 #=T CELL(abcABC):=T 1.889726e+02=T 90.00000=T Traj:=T positionsangstrom=T Step:=T 0=T Bead:=T pbc="F F F"
C      -44.35480000     -30.48860000     -73.06620000
C      -44.99190000     -31.66880000     -72.79770000
C      -44.30820000     -32.80170000     -72.56390000
C      -42.89340000     -32.77180000     -72.55100000
C      -42.20060000     -31.56790000     -72.82860000
C      -42.94530000     -30.41090000     -73.04890000
H      -44.95570000     -29.60250000     -73.29120000
H      -44.72500000     -33.72220000     -72.26320000
H      -41.11140000     -31.53640000     -72.72710000
H      -42.40810000     -29.58680000     -73.31360000
C      -42.14210000     -33.89650000     -71.96420000
H      -41.09920000     -33.91370000     -72.39880000
H      -42.63050000     -34.86190000     -72.05610000
C      -46.50580000     -31.82780000     -72.81160000
H      -46.92080000     -31.72890000     -73.76860000
H      -46.80080000     -32.86570000     -72.44350000
S      -41.92860000     -33.68390000     -70.11490000
S      -47.32460000     -30.53720000     -71.76490000
C      -43.38800000     -32.73440000     -69.50690000
H      -43.04090000     -32.06160000     -68.76080000
H      -43.95930000     -32.07330000     -70.15210000
C      -46.94850000     -31.09990000     -70.00970000
H      -47.25110000     -30.28420000     -69.33580000
H      -45.92240000     -31.27580000     -69.93640000
C      -47.63810000     -32.38460000     -69.64760000
H      -47.34670000     -32.63220000     -68.56720000
H      -48.68720000     -32.11180000     -69.59400000
C      -44.51210000     -33.70860000     -68.94250000
H      -45.33700000     -33.18220000     -68.47000000
H      -43.96310000     -34.38650000     -68.22610000
C      -45.04600000     -34.63450000     -69.96250000
C      -44.44430000     -35.81830000     -70.36370000
C      -46.38810000     -34.61790000     -70.42550000
H      -43.38970000     -35.90310000     -70.30450000
C      -46.68810000     -35.64820000     -71.29670000
C      -47.45750000     -33.69940000     -70.38850000
C      -48.59330000     -34.10820000     -71.12610000
S      -45.39160000     -36.79920000     -71.60460000
S      -48.31740000     -35.61370000     -71.94390000
H      -49.48040000     -33.48410000     -71.32510000
