40
Properties=species:S:1:pos:R:3 #=T CELL(abcABC):=T 1.889726e+02=T 90.00000=T Traj:=T positionsangstrom=T Step:=T 0=T Bead:=T pbc="F F F"
C      -44.38250000     -30.50600000     -73.10570000
C      -45.08630000     -31.66220000     -72.88500000
C      -44.31850000     -32.83840000     -72.63940000
C      -42.94350000     -32.72970000     -72.55320000
C      -42.27600000     -31.49100000     -72.74090000
C      -43.00300000     -30.30860000     -72.96740000
H      -45.03640000     -29.61780000     -73.30330000
H      -44.75140000     -33.82290000     -72.65930000
H      -41.19900000     -31.42990000     -72.66710000
H      -42.52220000     -29.35590000     -73.15100000
C      -42.05990000     -33.84380000     -72.08890000
H      -41.12010000     -33.74730000     -72.64520000
H      -42.44550000     -34.85600000     -72.33120000
C      -46.57420000     -31.72410000     -72.96540000
H      -46.92540000     -31.39600000     -73.92150000
H      -46.93350000     -32.76660000     -72.86680000
S      -41.66720000     -33.76960000     -70.20940000
S      -47.45760000     -30.66430000     -71.67940000
C      -43.12650000     -32.88140000     -69.44830000
H      -42.71480000     -32.29060000     -68.60590000
H      -43.55180000     -32.21200000     -70.28390000
C      -46.81400000     -31.32270000     -70.08320000
H      -46.90290000     -30.39360000     -69.48810000
H      -45.72660000     -31.59640000     -70.20320000
C      -47.61890000     -32.41360000     -69.45740000
H      -47.15330000     -32.65500000     -68.50470000
H      -48.70160000     -32.14000000     -69.36440000
C      -44.37180000     -33.79140000     -68.91710000
H      -45.02060000     -33.02070000     -68.50050000
H      -44.19850000     -34.46590000     -68.13720000
C      -45.10500000     -34.62320000     -69.91410000
C      -44.49980000     -35.76030000     -70.41210000
C      -46.48760000     -34.55380000     -70.45380000
H      -43.57370000     -36.11330000     -70.10440000
C      -46.71360000     -35.57350000     -71.38520000
C      -47.63050000     -33.68740000     -70.24860000
C      -48.79370000     -34.16610000     -70.98640000
S      -45.40400000     -36.68510000     -71.55110000
S      -48.32230000     -35.50490000     -71.98080000
H      -49.80210000     -33.78540000     -71.03050000
