40
Properties=species:S:1:pos:R:3 #=T CELL(abcABC):=T 1.889726e+02=T 90.00000=T Traj:=T positionsangstrom=T Step:=T 0=T Bead:=T pbc="F F F"
C      -45.43370000     -32.36010000     -73.41180000
C      -45.86230000     -33.67790000     -73.69360000
C      -47.08670000     -34.11660000     -73.15300000
C      -47.80660000     -33.40500000     -72.22160000
C      -47.32040000     -32.16050000     -71.83460000
C      -46.27160000     -31.62450000     -72.56250000
H      -44.46170000     -31.96140000     -73.58720000
H      -47.37280000     -35.11510000     -73.53420000
H      -47.83950000     -31.53670000     -71.05090000
H      -45.84240000     -30.71130000     -72.17350000
C      -48.92010000     -34.11810000     -71.46280000
H      -49.18910000     -35.11320000     -71.92350000
H      -49.80070000     -33.52110000     -71.53980000
C      -45.07510000     -34.66110000     -74.52890000
H      -45.41160000     -35.63510000     -74.45030000
H      -45.06210000     -34.40640000     -75.57570000
S      -48.61040000     -34.39940000     -69.66430000
S      -43.21180000     -34.65350000     -74.19360000
C      -47.04810000     -35.29260000     -69.85290000
H      -47.29760000     -36.33690000     -69.78030000
H      -46.69850000     -35.15680000     -70.89810000
C      -42.97970000     -35.80320000     -72.76760000
H      -41.96680000     -35.91690000     -72.63620000
H      -43.42510000     -36.72340000     -73.07110000
C      -43.65780000     -35.28290000     -71.40840000
H      -44.73660000     -35.52630000     -71.48220000
H      -43.42510000     -35.98650000     -70.58910000
C      -45.87180000     -34.95740000     -68.95310000
H      -45.12470000     -35.74760000     -69.16550000
H      -46.15440000     -35.11580000     -67.94250000
C      -45.37260000     -33.54950000     -69.13530000
C      -45.75140000     -32.44770000     -68.37060000
C      -44.31910000     -33.15770000     -70.05950000
H      -46.62000000     -32.45560000     -67.70350000
C      -43.99560000     -31.78890000     -69.94790000
C      -43.51930000     -33.84390000     -71.03840000
C      -42.54170000     -32.99430000     -71.66700000
S      -45.04220000     -30.97020000     -68.85770000
S      -42.90250000     -31.25790000     -71.27340000
H      -42.22070000     -33.25100000     -72.63990000
