40
Properties=species:S:1:pos:R:3 #=T CELL(abcABC):=T 1.889726e+02=T 90.00000=T Traj:=T positionsangstrom=T Step:=T 0=T Bead:=T pbc="F F F"
C      -44.66110000     -30.05540000     -73.13120000
C      -45.39500000     -31.25890000     -73.02730000
C      -44.70730000     -32.42230000     -72.79060000
C      -43.32410000     -32.38520000     -72.57700000
C      -42.61320000     -31.22200000     -72.76850000
C      -43.26920000     -30.01170000     -73.02030000
H      -45.10210000     -29.04700000     -73.25470000
H      -45.15030000     -33.41120000     -72.75300000
H      -41.54770000     -31.23870000     -72.61640000
H      -42.64600000     -29.16680000     -73.11720000
C      -42.61460000     -33.57840000     -72.08350000
H      -41.86730000     -33.94720000     -72.77810000
H      -43.23340000     -34.41310000     -71.84060000
C      -46.82360000     -31.21570000     -73.12790000
H      -47.06170000     -30.49730000     -73.95350000
H      -47.40870000     -32.10300000     -73.36450000
S      -41.79990000     -33.37830000     -70.40340000
S      -47.65610000     -30.66730000     -71.58040000
C      -43.17520000     -33.27050000     -69.31980000
H      -42.72560000     -32.70820000     -68.49780000
H      -43.89120000     -32.64740000     -69.85330000
C      -46.53550000     -31.16080000     -70.19070000
H      -46.41380000     -30.25460000     -69.54170000
H      -45.53620000     -31.37920000     -70.49330000
C      -46.85120000     -32.43500000     -69.35880000
H      -46.04220000     -32.66310000     -68.60010000
H      -47.79750000     -32.38970000     -68.79210000
C      -43.86420000     -34.54980000     -68.82470000
H      -44.41140000     -34.34980000     -67.88570000
H      -43.07340000     -35.27080000     -68.45420000
C      -44.77730000     -35.26120000     -69.81820000
C      -44.46100000     -36.58050000     -70.31610000
C      -46.02700000     -34.82240000     -70.38620000
H      -43.67410000     -37.23100000     -69.96990000
C      -46.57220000     -35.81610000     -71.28480000
C      -47.01770000     -33.75320000     -70.24210000
C      -48.13310000     -33.83920000     -71.05290000
S      -45.64400000     -37.25390000     -71.44080000
S      -48.17020000     -35.40470000     -72.00120000
H      -49.07650000     -33.23610000     -71.02430000
