40
Properties=species:S:1:pos:R:3 #=T CELL(abcABC):=T 1.889726e+02=T 90.00000=T Traj:=T positionsangstrom=T Step:=T 0=T Bead:=T pbc="F F F"
C      -44.44590000     -37.41510000     -72.25370000
C      -44.40370000     -36.27080000     -73.09100000
C      -45.54650000     -35.53170000     -73.32410000
C      -46.81350000     -36.03570000     -72.90610000
C      -46.87960000     -37.16920000     -72.10930000
C      -45.69490000     -37.90300000     -71.91480000
H      -43.53450000     -38.02730000     -72.10880000
H      -45.37730000     -34.54510000     -73.71850000
H      -47.82930000     -37.52110000     -71.88140000
H      -45.87810000     -38.82640000     -71.31500000
C      -48.09610000     -35.21190000     -73.23380000
H      -48.75310000     -35.99480000     -73.69320000
H      -47.94900000     -34.42120000     -74.07760000
C      -43.05050000     -35.89300000     -73.64900000
H      -42.20880000     -36.21990000     -73.03580000
H      -42.75260000     -36.48080000     -74.53400000
S      -49.01400000     -34.53120000     -71.73910000
S      -42.76420000     -34.14920000     -74.13720000
C      -47.92220000     -33.05480000     -71.17400000
H      -47.55300000     -32.58960000     -72.11170000
H      -48.65640000     -32.35630000     -70.74350000
C      -42.72030000     -33.25770000     -72.52510000
H      -41.89100000     -32.57940000     -72.55150000
H      -42.44670000     -33.80790000     -71.66280000
C      -44.05730000     -32.55790000     -72.21790000
H      -44.40330000     -31.97090000     -73.08020000
H      -44.86260000     -33.33340000     -72.20760000
C      -46.78350000     -33.49350000     -70.25270000
H      -46.13830000     -34.14880000     -70.79140000
H      -47.28630000     -34.13980000     -69.51170000
C      -46.04490000     -32.46710000     -69.49140000
C      -46.55230000     -32.03020000     -68.27170000
C      -44.94660000     -31.62990000     -69.95290000
H      -47.05310000     -32.75630000     -67.55760000
C      -44.79190000     -30.48870000     -69.09140000
C      -44.00160000     -31.58410000     -71.06190000
C      -43.20850000     -30.47460000     -71.02950000
S      -45.70350000     -30.59580000     -67.66370000
S      -43.53980000     -29.30550000     -69.68860000
H      -42.40580000     -30.25360000     -71.70860000
