40
Properties=species:S:1:pos:R:3 #=T CELL(abcABC):=T 1.889726e+02=T 90.00000=T Traj:=T positionsangstrom=T Step:=T 0=T Bead:=T pbc="F F F"
C      -44.72440000     -29.99430000     -73.34800000
C      -45.51580000     -31.10540000     -72.91180000
C      -44.86780000     -32.29140000     -72.56660000
C      -43.48110000     -32.36930000     -72.81160000
C      -42.72490000     -31.26620000     -73.20260000
C      -43.33030000     -30.04010000     -73.46370000
H      -45.35890000     -29.10120000     -73.39590000
H      -45.52660000     -33.13850000     -72.30830000
H      -41.69730000     -31.37680000     -73.42160000
H      -42.70920000     -29.16540000     -73.68570000
C      -42.84600000     -33.70290000     -72.80680000
H      -42.00010000     -34.00950000     -73.38020000
H      -43.54890000     -34.48150000     -73.03990000
C      -47.04350000     -31.01280000     -72.63290000
H      -47.66880000     -30.46730000     -73.32720000
H      -47.49240000     -32.00620000     -72.73830000
S      -42.05910000     -34.02340000     -71.09650000
S      -47.45240000     -30.28520000     -70.98680000
C      -43.09310000     -33.25990000     -69.75060000
H      -42.34520000     -32.74980000     -69.13320000
H      -43.81000000     -32.57820000     -70.22480000
C      -46.39310000     -31.23080000     -69.81010000
H      -46.14200000     -30.47880000     -68.97210000
H      -45.47470000     -31.52120000     -70.26520000
C      -47.01570000     -32.53880000     -69.13230000
H      -46.45400000     -32.81870000     -68.23480000
H      -48.02540000     -32.18790000     -68.88910000
C      -43.81790000     -34.30950000     -68.85030000
H      -44.32710000     -33.89390000     -68.03620000
H      -43.11260000     -34.98720000     -68.33260000
C      -44.73250000     -35.11640000     -69.71620000
C      -44.33510000     -36.34910000     -70.13460000
C      -46.04050000     -34.83360000     -70.25570000
H      -43.25980000     -36.68680000     -69.85180000
C      -46.41380000     -35.74960000     -71.19730000
C      -47.11990000     -33.83450000     -70.07470000
C      -48.19520000     -34.11890000     -70.82290000
S      -45.35980000     -37.09490000     -71.35030000
S      -48.02900000     -35.51750000     -71.88630000
H      -49.13260000     -33.54230000     -70.91910000
