40
Properties=species:S:1:pos:R:3 #=T CELL(abcABC):=T 1.889726e+02=T 90.00000=T Traj:=T positionsangstrom=T Step:=T 0=T Bead:=T pbc="F F F"
C      -44.73570000     -29.95020000     -73.09570000
C      -45.56410000     -31.07770000     -72.89210000
C      -44.95240000     -32.33430000     -72.78470000
C      -43.55970000     -32.49800000     -72.89100000
C      -42.77410000     -31.42230000     -73.30040000
C      -43.40110000     -30.17470000     -73.44290000
H      -45.19090000     -28.92720000     -73.05140000
H      -45.66610000     -33.12230000     -72.43340000
H      -41.71310000     -31.42960000     -73.39610000
H      -42.76950000     -29.33220000     -73.69010000
C      -42.95840000     -33.86760000     -72.66890000
H      -42.24180000     -34.05110000     -73.51030000
H      -43.80040000     -34.56790000     -72.80480000
C      -47.01080000     -30.85060000     -72.54970000
H      -47.37240000     -29.97110000     -73.12880000
H      -47.65070000     -31.69480000     -72.80050000
S      -41.94500000     -34.16770000     -71.15080000
S      -47.41100000     -30.35040000     -70.79380000
C      -42.93000000     -33.27150000     -69.93600000
H      -42.35370000     -32.53010000     -69.31500000
H      -43.48950000     -32.57100000     -70.55930000
C      -46.34410000     -31.33250000     -69.65960000
H      -46.10410000     -30.68890000     -68.82740000
H      -45.46050000     -31.54210000     -70.24460000
C      -47.05510000     -32.55090000     -69.10560000
H      -46.44950000     -32.78590000     -68.22030000
H      -48.08620000     -32.40920000     -68.76240000
C      -43.92770000     -34.10200000     -69.01090000
H      -44.57710000     -33.34890000     -68.52040000
H      -43.31200000     -34.56780000     -68.23100000
C      -44.77580000     -35.03590000     -69.77630000
C      -44.20390000     -36.15000000     -70.41610000
C      -46.09380000     -34.79210000     -70.21900000
H      -43.32060000     -36.72440000     -70.03500000
C      -46.47600000     -35.80700000     -71.13730000
C      -47.12020000     -33.71990000     -70.07450000
C      -48.17900000     -33.95260000     -70.90480000
S      -45.31680000     -36.99940000     -71.42150000
S      -48.07270000     -35.54220000     -71.80090000
H      -49.02630000     -33.30300000     -71.00060000
