40
Properties=species:S:1:pos:R:3 #=T CELL(abcABC):=T 1.889726e+02=T 90.00000=T Traj:=T positionsangstrom=T Step:=T 0=T Bead:=T pbc="F F F"
C      -44.82960000     -29.98940000     -72.97800000
C      -45.60200000     -31.13790000     -72.68630000
C      -44.94170000     -32.37750000     -72.58830000
C      -43.62250000     -32.48120000     -73.02760000
C      -42.83070000     -31.41360000     -73.39080000
C      -43.46920000     -30.14870000     -73.28960000
H      -45.23420000     -28.96690000     -73.09790000
H      -45.44030000     -33.34950000     -72.39710000
H      -41.74780000     -31.44260000     -73.59950000
H      -42.87670000     -29.28260000     -73.44620000
C      -43.03260000     -33.95000000     -72.97800000
H      -42.44380000     -34.15770000     -73.88420000
H      -43.88790000     -34.66080000     -73.03060000
C      -47.01240000     -31.06990000     -72.23300000
H      -47.65950000     -30.44040000     -72.87910000
H      -47.39020000     -32.06590000     -72.11870000
S      -42.01710000     -34.14080000     -71.44300000
S      -47.07470000     -30.17080000     -70.60250000
C      -42.90210000     -33.25810000     -70.06270000
H      -42.07830000     -32.74840000     -69.52510000
H      -43.52370000     -32.43940000     -70.47320000
C      -46.14930000     -31.33970000     -69.52130000
H      -45.86150000     -30.63880000     -68.69290000
H      -45.23930000     -31.64350000     -70.06670000
C      -46.95390000     -32.58150000     -69.07420000
H      -46.41750000     -32.98130000     -68.16990000
H      -47.93370000     -32.29270000     -68.67790000
C      -43.76860000     -34.16380000     -69.13050000
H      -44.39170000     -33.52670000     -68.49580000
H      -43.16580000     -34.83680000     -68.38150000
C      -44.70310000     -35.01570000     -69.94780000
C      -44.25080000     -36.22440000     -70.47610000
C      -46.09280000     -34.71000000     -70.34720000
H      -43.32400000     -36.68560000     -70.40750000
C      -46.53820000     -35.74520000     -71.19290000
C      -47.09000000     -33.71200000     -70.10030000
C      -48.30990000     -34.07590000     -70.64620000
S      -45.41660000     -36.98880000     -71.57840000
S      -48.24600000     -35.50560000     -71.63230000
H      -49.23170000     -33.46660000     -70.67020000
