40
Properties=species:S:1:pos:R:3 #=T CELL(abcABC):=T 1.889726e+02=T 90.00000=T Traj:=T positionsangstrom=T Step:=T 0=T Bead:=T pbc="F F F"
C      -46.03850000     -33.02350000     -73.75390000
C      -46.30530000     -34.38590000     -73.64440000
C      -47.36900000     -34.80220000     -72.73090000
C      -47.94960000     -33.83490000     -71.93480000
C      -47.62150000     -32.43770000     -72.00980000
C      -46.78490000     -32.01150000     -73.03610000
H      -45.36060000     -32.52710000     -74.40080000
H      -47.54220000     -35.87830000     -72.72000000
H      -48.08730000     -31.71070000     -71.35480000
H      -46.69670000     -30.93080000     -73.26730000
C      -48.87190000     -34.25860000     -70.90450000
H      -48.98590000     -35.39870000     -70.77870000
H      -49.87590000     -33.75380000     -70.94810000
C      -45.56530000     -35.44940000     -74.36300000
H      -45.90950000     -36.43900000     -74.00370000
H      -45.62200000     -35.34570000     -75.45370000
S      -48.21380000     -33.64820000     -69.21990000
S      -43.67720000     -35.51340000     -74.10140000
C      -46.81490000     -34.81300000     -68.93730000
H      -47.06080000     -35.54590000     -68.23900000
H      -46.69690000     -35.39450000     -69.89370000
C      -43.41610000     -36.07870000     -72.38260000
H      -42.33100000     -36.16680000     -72.32390000
H      -43.77720000     -37.12190000     -72.26220000
C      -43.99240000     -35.18400000     -71.23060000
H      -45.08620000     -35.20090000     -71.37770000
H      -43.81930000     -35.68180000     -70.28630000
C      -45.54030000     -34.18600000     -68.42670000
H      -44.79350000     -34.95770000     -68.54030000
H      -45.56250000     -33.93830000     -67.34490000
C      -45.02020000     -32.86700000     -69.12340000
C      -45.29140000     -31.64360000     -68.55420000
C      -44.16000000     -32.78510000     -70.27420000
H      -46.07140000     -31.51490000     -67.80470000
C      -43.77230000     -31.50410000     -70.53720000
C      -43.55500000     -33.73610000     -71.20240000
C      -42.62620000     -33.15520000     -72.06730000
S      -44.59960000     -30.31660000     -69.51210000
S      -42.49450000     -31.43060000     -71.69770000
H      -42.06170000     -33.65040000     -72.89110000
