40
Properties=species:S:1:pos:R:3 #=T CELL(abcABC):=T 1.889726e+02=T 90.00000=T Traj:=T positionsangstrom=T Step:=T 0=T Bead:=T pbc="F F F"
C      -44.96950000     -32.93450000     -74.99480000
C      -44.14450000     -32.03640000     -74.28190000
C      -43.10070000     -32.50490000     -73.53290000
C      -42.79670000     -33.86760000     -73.51280000
C      -43.56230000     -34.77710000     -74.22340000
C      -44.66700000     -34.32070000     -74.94630000
H      -45.77710000     -32.64790000     -75.60630000
H      -42.53240000     -31.89260000     -72.78950000
H      -43.35460000     -35.83970000     -74.10270000
H      -45.31460000     -35.02910000     -75.39140000
C      -41.73140000     -34.23860000     -72.56870000
H      -41.36430000     -33.38610000     -71.95380000
H      -40.83360000     -34.55700000     -73.21320000
C      -44.44070000     -30.58790000     -74.32330000
H      -43.52960000     -30.04500000     -74.51910000
H      -45.06830000     -30.20150000     -75.08190000
S      -42.19880000     -35.68320000     -71.46560000
S      -45.17070000     -29.96800000     -72.68830000
C      -43.85550000     -35.22350000     -70.90720000
H      -44.42050000     -34.90840000     -71.78800000
H      -44.40200000     -36.13980000     -70.71470000
C      -46.65530000     -31.08380000     -72.33810000
H      -47.37700000     -31.03020000     -73.15830000
H      -47.07310000     -30.52320000     -71.49190000
C      -46.18010000     -32.52750000     -71.95960000
H      -46.30400000     -33.14310000     -72.87180000
H      -45.11040000     -32.65920000     -71.68180000
C      -43.89180000     -34.19000000     -69.72550000
H      -43.73010000     -33.22240000     -70.22690000
H      -43.04780000     -34.36600000     -69.09290000
C      -45.28480000     -34.11020000     -69.06230000
C      -45.32460000     -34.52880000     -67.74500000
C      -46.59430000     -33.74580000     -69.60060000
H      -44.51680000     -34.81460000     -67.11560000
C      -47.58870000     -33.84460000     -68.65080000
C      -47.06610000     -33.21020000     -70.83600000
C      -48.47070000     -33.11780000     -70.92820000
S      -46.97710000     -34.31660000     -67.04900000
S      -49.23130000     -33.68050000     -69.35990000
H      -49.04460000     -32.83460000     -71.80990000
