40
Properties=species:S:1:pos:R:3 #=T CELL(abcABC):=T 1.889726e+02=T 90.00000=T Traj:=T positionsangstrom=T Step:=T 0=T Bead:=T pbc="F F F"
C      -45.44800000     -37.29010000     -71.20000000
C      -46.27090000     -36.47220000     -70.43490000
C      -47.25000000     -35.67870000     -71.05780000
C      -47.47450000     -35.70650000     -72.39710000
C      -46.69940000     -36.59930000     -73.18900000
C      -45.62800000     -37.31000000     -72.62160000
H      -44.54690000     -37.80690000     -70.72930000
H      -47.76010000     -34.94520000     -70.40010000
H      -46.80960000     -36.58270000     -74.22890000
H      -45.03540000     -37.94480000     -73.20140000
C      -48.53490000     -34.90840000     -73.22170000
H      -49.42450000     -35.58430000     -73.28770000
H      -48.20390000     -34.77080000     -74.23060000
C      -46.06380000     -36.24620000     -68.95600000
H      -46.60850000     -35.39720000     -68.46770000
H      -46.31170000     -37.11010000     -68.39520000
S      -49.03840000     -33.32150000     -72.49130000
S      -44.27780000     -35.98320000     -68.58130000
C      -47.50150000     -32.37200000     -72.62790000
H      -46.88010000     -32.79220000     -73.36310000
H      -47.85320000     -31.36670000     -72.98000000
C      -44.08230000     -34.25780000     -69.18140000
H      -43.29210000     -33.75740000     -68.62590000
H      -44.97410000     -33.69280000     -68.83000000
C      -43.80080000     -34.10210000     -70.73720000
H      -43.00670000     -34.83990000     -71.01440000
H      -44.61340000     -34.46790000     -71.34290000
C      -46.74700000     -32.21150000     -71.32930000
H      -46.29020000     -33.11680000     -70.95260000
H      -47.28350000     -31.79870000     -70.54500000
C      -45.62980000     -31.20270000     -71.60650000
C      -45.75150000     -29.94520000     -72.00360000
C      -44.21540000     -31.57090000     -71.38700000
H      -46.70790000     -29.45180000     -72.05850000
C      -43.42350000     -30.45040000     -71.47910000
C      -43.29800000     -32.71590000     -71.04880000
C      -41.93630000     -32.41050000     -71.06920000
S      -44.28350000     -29.02780000     -71.95330000
S      -41.69320000     -30.67430000     -71.35150000
H      -41.14450000     -33.15690000     -70.95130000
