40
Properties=species:S:1:pos:R:3 #=T CELL(abcABC):=T 1.889726e+02=T 90.00000=T Traj:=T positionsangstrom=T Step:=T 0=T Bead:=T pbc="F F F"
C      -43.84280000     -37.38050000     -71.05510000
C      -43.36210000     -36.23000000     -70.44150000
C      -44.19430000     -35.50050000     -69.60400000
C      -45.51620000     -35.91090000     -69.35520000
C      -46.00210000     -37.03050000     -70.03570000
C      -45.21000000     -37.72930000     -70.87550000
H      -43.23570000     -37.92010000     -71.72570000
H      -43.84150000     -34.47390000     -69.25450000
H      -47.06300000     -37.20940000     -69.94270000
H      -45.45430000     -38.63110000     -71.37000000
C      -46.26960000     -35.12980000     -68.40870000
H      -45.83980000     -34.10660000     -68.16100000
H      -46.29740000     -35.58040000     -67.41180000
C      -42.01000000     -35.61380000     -70.62370000
H      -41.40980000     -35.47780000     -69.76040000
H      -41.42650000     -36.38780000     -71.22110000
S      -48.14340000     -34.79990000     -68.83130000
S      -41.93610000     -34.17360000     -71.80230000
C      -48.07520000     -33.24940000     -69.77620000
H      -49.06330000     -32.78210000     -69.72010000
H      -47.37190000     -32.53390000     -69.18360000
C      -43.29660000     -34.51900000     -73.02610000
H      -43.32430000     -35.57300000     -73.13540000
H      -42.99210000     -34.09600000     -73.97940000
C      -44.60480000     -33.88180000     -72.55410000
H      -45.41380000     -34.38520000     -73.02710000
H      -44.68640000     -34.09280000     -71.48940000
C      -47.51550000     -33.26130000     -71.18050000
H      -48.09880000     -33.89660000     -71.82180000
H      -46.63770000     -33.80080000     -71.00310000
C      -47.17430000     -31.89140000     -71.73920000
C      -47.90940000     -30.75950000     -71.61310000
C      -45.86840000     -31.61790000     -72.30880000
H      -48.85930000     -30.66290000     -71.22290000
C      -45.70020000     -30.24710000     -72.53980000
C      -44.71580000     -32.31080000     -72.74240000
C      -43.78790000     -31.49790000     -73.36790000
S      -47.10310000     -29.23780000     -72.11730000
S      -44.27890000     -29.77710000     -73.44350000
H      -42.74440000     -31.83590000     -73.61310000
