40
Properties=species:S:1:pos:R:3 #=T CELL(abcABC):=T 1.889726e+02=T 90.00000=T Traj:=T positionsangstrom=T Step:=T 0=T Bead:=T pbc="F F F"
C      -44.90130000     -29.89870000     -72.46840000
C      -45.66440000     -30.97900000     -72.03280000
C      -45.49250000     -32.28640000     -72.63150000
C      -44.47640000     -32.45170000     -73.61450000
C      -43.63110000     -31.40010000     -73.92180000
C      -43.84900000     -30.13690000     -73.36750000
H      -45.01880000     -28.96200000     -71.92160000
H      -46.19750000     -33.04120000     -72.41240000
H      -42.70350000     -31.48020000     -74.52830000
H      -43.08530000     -29.39240000     -73.64720000
C      -44.12380000     -33.84420000     -74.00680000
H      -44.00710000     -33.93520000     -75.11110000
H      -44.93530000     -34.50800000     -73.80280000
C      -46.86280000     -30.73510000     -71.12710000
H      -47.58060000     -30.05510000     -71.51400000
H      -47.39640000     -31.68890000     -71.19200000
S      -42.56310000     -34.55000000     -73.32730000
S      -46.51400000     -30.34780000     -69.39090000
C      -42.48830000     -33.95570000     -71.59720000
H      -41.40810000     -33.64720000     -71.37690000
H      -43.07710000     -33.02970000     -71.46360000
C      -45.00210000     -31.29530000     -69.00570000
H      -44.60850000     -30.68390000     -68.20600000
H      -44.33420000     -31.13670000     -69.85700000
C      -45.13350000     -32.73750000     -68.65970000
H      -44.15830000     -33.18480000     -68.66110000
H      -45.45980000     -32.80640000     -67.66440000
C      -43.01100000     -34.96130000     -70.56350000
H      -42.91340000     -34.50760000     -69.57080000
H      -42.39190000     -35.92560000     -70.60820000
C      -44.44810000     -35.42310000     -70.81290000
C      -44.78420000     -36.56980000     -71.54750000
C      -45.65180000     -34.73070000     -70.33780000
H      -44.07360000     -37.35080000     -71.97010000
C      -46.82800000     -35.35880000     -70.78480000
C      -46.03470000     -33.69990000     -69.39140000
C      -47.38410000     -33.57760000     -69.21230000
S      -46.46390000     -36.89310000     -71.74090000
S      -48.29130000     -34.69360000     -70.13770000
H      -48.00570000     -32.80650000     -68.65170000
