40
Properties=species:S:1:pos:R:3 #=T CELL(abcABC):=T 1.889726e+02=T 90.00000=T Traj:=T positionsangstrom=T Step:=T 0=T Bead:=T pbc="F F F"
C      -45.15570000     -29.79200000     -72.65160000
C      -45.78540000     -30.87720000     -72.11560000
C      -45.56000000     -32.17590000     -72.66730000
C      -44.45840000     -32.34120000     -73.51460000
C      -43.67980000     -31.22660000     -73.90100000
C      -44.05770000     -29.92160000     -73.46940000
H      -45.55930000     -28.83410000     -72.46130000
H      -45.93550000     -33.02700000     -72.15790000
H      -42.70290000     -31.31010000     -74.42100000
H      -43.58620000     -29.03560000     -73.76620000
C      -44.28410000     -33.76310000     -74.01750000
H      -44.25350000     -33.78570000     -75.13920000
H      -45.11140000     -34.40320000     -73.64010000
C      -46.86120000     -30.68880000     -71.10210000
H      -47.23760000     -29.62170000     -71.12060000
H      -47.74000000     -31.36300000     -71.25640000
S      -42.74990000     -34.69230000     -73.40400000
S      -46.32830000     -30.49220000     -69.34060000
C      -42.48490000     -33.93980000     -71.77310000
H      -41.42070000     -33.72030000     -71.62080000
H      -42.99850000     -32.97710000     -71.84340000
C      -44.77520000     -31.42900000     -69.06090000
H      -44.04050000     -30.92370000     -68.36220000
H      -44.24710000     -31.55710000     -70.02370000
C      -45.04520000     -32.89700000     -68.52990000
H      -44.11010000     -33.43740000     -68.38380000
H      -45.42490000     -32.73800000     -67.47690000
C      -42.96680000     -34.86820000     -70.65650000
H      -42.80610000     -34.31880000     -69.74420000
H      -42.25420000     -35.68300000     -70.64380000
C      -44.41100000     -35.40310000     -70.75470000
C      -44.66910000     -36.51660000     -71.50510000
C      -45.64210000     -34.76330000     -70.27020000
H      -43.84750000     -37.18320000     -71.93760000
C      -46.79180000     -35.46500000     -70.67280000
C      -46.01210000     -33.71700000     -69.27480000
C      -47.36760000     -33.57950000     -69.10650000
S      -46.44710000     -36.79820000     -71.74260000
S      -48.21980000     -34.79900000     -70.10920000
H      -47.98160000     -32.83170000     -68.64950000
