40
Properties=species:S:1:pos:R:3 #=T CELL(abcABC):=T 1.889726e+02=T 90.00000=T Traj:=T positionsangstrom=T Step:=T 0=T Bead:=T pbc="F F F"
C      -45.55260000     -29.84060000     -72.69520000
C      -45.92760000     -30.98820000     -71.94820000
C      -45.43400000     -32.20170000     -72.46630000
C      -44.72110000     -32.35610000     -73.66100000
C      -44.55030000     -31.20940000     -74.41760000
C      -44.85110000     -29.95570000     -73.91930000
H      -45.79070000     -28.88500000     -72.29350000
H      -45.68040000     -33.07310000     -71.89570000
H      -44.11240000     -31.19930000     -75.47390000
H      -44.59650000     -29.02230000     -74.52000000
C      -44.33870000     -33.69960000     -74.05950000
H      -44.46020000     -33.88900000     -75.15210000
H      -45.03380000     -34.36000000     -73.48040000
C      -46.76890000     -30.83140000     -70.70650000
H      -47.28020000     -29.80400000     -70.80290000
H      -47.40930000     -31.65980000     -70.49900000
S      -42.56940000     -34.14360000     -73.65960000
S      -45.71800000     -30.47330000     -69.11700000
C      -42.47290000     -33.82430000     -71.84550000
H      -41.41870000     -33.67050000     -71.61250000
H      -42.92280000     -32.87820000     -71.61460000
C      -44.42740000     -31.76050000     -69.12380000
H      -43.60890000     -31.33240000     -68.57550000
H      -44.12580000     -31.85930000     -70.15530000
C      -44.93460000     -33.06410000     -68.42730000
H      -44.06910000     -33.72510000     -68.23170000
H      -45.32770000     -32.75240000     -67.42440000
C      -42.96630000     -34.95820000     -70.84790000
H      -42.71760000     -34.58480000     -69.85690000
H      -42.27340000     -35.82000000     -71.04750000
C      -44.43830000     -35.37660000     -70.93950000
C      -44.80580000     -36.39090000     -71.75360000
C      -45.63680000     -34.83810000     -70.23940000
H      -44.07820000     -37.06390000     -72.26670000
C      -46.79800000     -35.52470000     -70.60340000
C      -45.92950000     -33.89060000     -69.22450000
C      -47.26560000     -33.80350000     -68.91290000
S      -46.51300000     -36.78860000     -71.74210000
S      -48.22670000     -34.88020000     -69.78960000
H      -47.60760000     -33.25190000     -67.99630000
