40
Properties=species:S:1:pos:R:3 #=T CELL(abcABC):=T 1.889726e+02=T 90.00000=T Traj:=T positionsangstrom=T Step:=T 0=T Bead:=T pbc="F F F"
C      -45.65090000     -29.84840000     -72.82540000
C      -46.00300000     -30.96530000     -72.02400000
C      -45.41380000     -32.17010000     -72.38470000
C      -44.68910000     -32.29430000     -73.56180000
C      -44.52870000     -31.22500000     -74.42250000
C      -45.03520000     -29.98940000     -74.06830000
H      -46.08630000     -28.98150000     -72.45070000
H      -45.54290000     -33.05720000     -71.78380000
H      -43.95910000     -31.26240000     -75.36880000
H      -44.93740000     -29.16440000     -74.70420000
C      -44.42640000     -33.68730000     -74.07320000
H      -44.41430000     -33.59270000     -75.18740000
H      -45.10350000     -34.52410000     -73.76740000
C      -46.79890000     -30.79200000     -70.69310000
H      -47.71670000     -30.20400000     -70.57690000
H      -47.26180000     -31.74600000     -70.47790000
S      -42.72010000     -34.24920000     -73.71300000
S      -45.62520000     -30.40400000     -69.19180000
C      -42.54250000     -33.78590000     -71.88090000
H      -41.44640000     -33.55250000     -71.79320000
H      -43.12790000     -32.86920000     -71.80830000
C      -44.42390000     -31.79340000     -69.18100000
H      -43.61510000     -31.38220000     -68.52730000
H      -43.95910000     -32.00110000     -70.18360000
C      -44.82780000     -33.05800000     -68.40050000
H      -43.96820000     -33.58590000     -68.08060000
H      -45.31740000     -32.58160000     -67.51150000
C      -42.99030000     -34.87420000     -70.82820000
H      -42.87960000     -34.50630000     -69.82570000
H      -42.37170000     -35.76470000     -70.88810000
C      -44.41960000     -35.36730000     -70.96010000
C      -44.77790000     -36.34750000     -71.81530000
C      -45.58190000     -34.89690000     -70.14190000
H      -44.05890000     -36.95120000     -72.42140000
C      -46.75240000     -35.54930000     -70.52480000
C      -45.82470000     -33.90760000     -69.13930000
C      -47.15450000     -33.80500000     -68.79230000
S      -46.48960000     -36.77820000     -71.73060000
S      -48.15930000     -34.91450000     -69.68520000
H      -47.53110000     -33.06580000     -68.03620000
