40
Properties=species:S:1:pos:R:3 #=T CELL(abcABC):=T 1.889726e+02=T 90.00000=T Traj:=T positionsangstrom=T Step:=T 0=T Bead:=T pbc="F F F"
C      -45.60320000     -29.81430000     -72.80150000
C      -46.01980000     -30.88720000     -71.98490000
C      -45.64510000     -32.19280000     -72.52400000
C      -44.87270000     -32.32740000     -73.68380000
C      -44.62610000     -31.21140000     -74.52650000
C      -45.04860000     -29.98300000     -74.10460000
H      -45.74730000     -28.80070000     -72.39960000
H      -46.03420000     -32.99970000     -71.87890000
H      -44.32020000     -31.30990000     -75.50580000
H      -44.92200000     -29.18600000     -74.73990000
C      -44.47040000     -33.68460000     -74.24130000
H      -44.37250000     -33.58940000     -75.28830000
H      -45.18560000     -34.40460000     -74.02720000
C      -46.67940000     -30.83890000     -70.59290000
H      -47.31430000     -29.98160000     -70.50670000
H      -47.08940000     -31.89310000     -70.46910000
S      -42.87840000     -34.36030000     -73.59290000
S      -45.57560000     -30.34720000     -69.18430000
C      -42.63700000     -33.73210000     -71.77030000
H      -41.61600000     -33.39580000     -71.68000000
H      -43.33610000     -32.93360000     -71.56280000
C      -44.29820000     -31.67800000     -69.20850000
H      -43.38570000     -31.23460000     -68.86440000
H      -44.24810000     -31.83640000     -70.26850000
C      -44.73790000     -32.95950000     -68.52700000
H      -43.85750000     -33.60490000     -68.36720000
H      -45.04720000     -32.80230000     -67.50370000
C      -42.96210000     -34.86890000     -70.80850000
H      -42.83580000     -34.45250000     -69.76580000
H      -42.24050000     -35.66410000     -70.97250000
C      -44.39000000     -35.33530000     -70.93970000
C      -44.73180000     -36.33200000     -71.77040000
C      -45.53800000     -34.80810000     -70.19400000
H      -44.13070000     -36.76090000     -72.56990000
C      -46.68430000     -35.49290000     -70.57280000
C      -45.77340000     -33.90660000     -69.15640000
C      -47.09560000     -33.95650000     -68.68850000
S      -46.49260000     -36.71250000     -71.74940000
S      -48.05820000     -35.07850000     -69.61890000
H      -47.60980000     -33.22490000     -68.08840000
