40
Properties=species:S:1:pos:R:3 #=T CELL(abcABC):=T 1.889726e+02=T 90.00000=T Traj:=T positionsangstrom=T Step:=T 0=T Bead:=T pbc="F F F"
C      -45.07350000     -29.86050000     -72.43480000
C      -45.84260000     -30.95870000     -71.99870000
C      -45.78900000     -32.15300000     -72.69350000
C      -44.95910000     -32.31040000     -73.80290000
C      -44.27630000     -31.16670000     -74.28230000
C      -44.33160000     -29.91570000     -73.59120000
H      -45.22210000     -28.99910000     -71.87210000
H      -46.41440000     -32.99630000     -72.37250000
H      -43.74140000     -31.28810000     -75.24730000
H      -43.75150000     -29.01910000     -73.95490000
C      -44.79510000     -33.68090000     -74.40350000
H      -44.74340000     -33.64860000     -75.53000000
H      -45.68210000     -34.30320000     -74.07770000
C      -46.82370000     -30.72960000     -70.89490000
H      -47.43470000     -29.90070000     -71.18460000
H      -47.47770000     -31.64540000     -70.84030000
S      -43.09150000     -34.29370000     -73.90780000
S      -46.17570000     -30.41660000     -69.22550000
C      -42.67220000     -33.86830000     -72.17320000
H      -41.64930000     -33.50790000     -72.12240000
H      -43.29350000     -33.00170000     -72.03420000
C      -44.65040000     -31.45780000     -69.22440000
H      -43.75170000     -30.85890000     -68.94040000
H      -44.40830000     -31.56620000     -70.33350000
C      -44.65560000     -32.80420000     -68.53960000
H      -43.61600000     -33.07110000     -68.58680000
H      -44.81830000     -32.69460000     -67.46130000
C      -42.88670000     -34.92220000     -70.97610000
H      -42.62940000     -34.35030000     -70.10860000
H      -42.18870000     -35.72030000     -71.17580000
C      -44.29970000     -35.46450000     -70.91130000
C      -44.70520000     -36.46710000     -71.75100000
C      -45.31810000     -35.04530000     -69.96690000
H      -44.05770000     -37.04610000     -72.38990000
C      -46.55380000     -35.68520000     -70.31710000
C      -45.60280000     -33.88950000     -69.10440000
C      -46.93860000     -33.83810000     -68.63050000
S      -46.39580000     -36.84190000     -71.55800000
S      -47.98660000     -34.91290000     -69.54360000
H      -47.44240000     -33.04310000     -68.13380000
