40
Properties=species:S:1:pos:R:3 #=T CELL(abcABC):=T 1.889726e+02=T 90.00000=T Traj:=T positionsangstrom=T Step:=T 0=T Bead:=T pbc="F F F"
C      -45.48960000     -29.80360000     -72.53920000
C      -46.15820000     -30.96100000     -72.17760000
C      -45.84790000     -32.19190000     -72.80580000
C      -44.81820000     -32.22480000     -73.78990000
C      -44.11480000     -31.04580000     -74.07980000
C      -44.38230000     -29.85120000     -73.41720000
H      -45.75600000     -28.93780000     -71.89110000
H      -46.38190000     -33.11130000     -72.53380000
H      -43.22810000     -31.11180000     -74.69460000
H      -43.76520000     -28.96210000     -73.55530000
C      -44.42770000     -33.51130000     -74.39910000
H      -44.30730000     -33.43210000     -75.46830000
H      -45.22790000     -34.29790000     -74.32340000
C      -47.10230000     -31.02400000     -70.99640000
H      -48.02290000     -30.44390000     -71.02960000
H      -47.34950000     -32.03270000     -70.87760000
S      -42.92850000     -34.30460000     -73.73950000
S      -46.14950000     -30.57590000     -69.39300000
C      -42.67370000     -33.69900000     -71.96830000
H      -41.66310000     -33.30030000     -71.93080000
H      -43.41480000     -32.91180000     -71.82310000
C      -44.59430000     -31.60890000     -69.47020000
H      -43.84900000     -30.86390000     -69.07740000
H      -44.30710000     -31.83630000     -70.48830000
C      -44.57380000     -32.85910000     -68.62060000
H      -43.55700000     -33.29390000     -68.54150000
H      -44.88950000     -32.53370000     -67.67020000
C      -42.91930000     -34.78240000     -70.96260000
H      -42.76180000     -34.39430000     -70.00070000
H      -42.14960000     -35.51020000     -71.13610000
C      -44.32990000     -35.42010000     -70.88530000
C      -44.70570000     -36.47200000     -71.66040000
C      -45.47640000     -34.88440000     -70.14270000
H      -43.97820000     -36.85710000     -72.35310000
C      -46.62860000     -35.57040000     -70.35120000
C      -45.61460000     -33.90150000     -69.09360000
C      -46.90230000     -33.84050000     -68.64640000
S      -46.41040000     -36.81560000     -71.59260000
S      -47.95370000     -34.96800000     -69.42880000
H      -47.33350000     -33.24370000     -67.86210000
