40
Properties=species:S:1:pos:R:3 #=T CELL(abcABC):=T 1.889726e+02=T 90.00000=T Traj:=T positionsangstrom=T Step:=T 0=T Bead:=T pbc="F F F"
C      -45.92230000     -29.87500000     -72.71350000
C      -46.21800000     -31.07050000     -72.10950000
C      -45.72790000     -32.24830000     -72.64800000
C      -44.81500000     -32.29270000     -73.70250000
C      -44.45170000     -31.09390000     -74.32670000
C      -44.97600000     -29.89490000     -73.80150000
H      -46.35780000     -28.90150000     -72.37360000
H      -45.96370000     -33.19390000     -72.12050000
H      -43.63320000     -31.09070000     -75.05280000
H      -44.71540000     -28.95970000     -74.19880000
C      -44.19930000     -33.60070000     -74.11430000
H      -44.16320000     -33.74330000     -75.16060000
H      -44.73200000     -34.45810000     -73.62450000
C      -46.93060000     -31.18260000     -70.78740000
H      -47.85470000     -30.56780000     -70.67670000
H      -47.34250000     -32.18790000     -70.62120000
S      -42.43090000     -33.75100000     -73.46570000
S      -45.97490000     -30.63060000     -69.25740000
C      -42.62990000     -33.59330000     -71.63830000
H      -41.75040000     -33.04820000     -71.22250000
H      -43.49490000     -32.95020000     -71.41900000
C      -44.47870000     -31.70820000     -69.14840000
H      -43.78780000     -31.10450000     -68.53970000
H      -43.99410000     -31.75510000     -70.14880000
C      -44.73130000     -33.09340000     -68.41390000
H      -43.84710000     -33.72330000     -68.28020000
H      -45.03700000     -32.84570000     -67.39710000
C      -42.89540000     -34.87900000     -70.84830000
H      -42.88970000     -34.46260000     -69.84750000
H      -42.04620000     -35.59890000     -70.93190000
C      -44.36520000     -35.36150000     -71.08790000
C      -44.74520000     -36.27300000     -71.99410000
C      -45.49420000     -34.92030000     -70.19340000
H      -44.20660000     -36.73870000     -72.81460000
C      -46.67290000     -35.55370000     -70.62990000
C      -45.70690000     -34.00560000     -69.05770000
C      -47.01340000     -34.05540000     -68.64820000
S      -46.48530000     -36.67760000     -71.95520000
S      -48.05440000     -35.15670000     -69.62350000
H      -47.45660000     -33.48470000     -67.81840000
