40
Properties=species:S:1:pos:R:3 #=T CELL(abcABC):=T 1.889726e+02=T 90.00000=T Traj:=T positionsangstrom=T Step:=T 0=T Bead:=T pbc="F F F"
C      -43.75290000     -37.14810000     -71.15190000
C      -43.28670000     -36.10290000     -70.38260000
C      -44.14530000     -35.50690000     -69.38990000
C      -45.44190000     -35.91720000     -69.33070000
C      -45.92270000     -36.95940000     -70.13200000
C      -45.06550000     -37.60330000     -70.99040000
H      -42.93790000     -37.67990000     -71.64660000
H      -43.77870000     -34.68390000     -68.82350000
H      -46.95280000     -37.29080000     -70.03280000
H      -45.49940000     -38.34610000     -71.71020000
C      -46.31830000     -35.32550000     -68.20330000
H      -45.76720000     -34.51480000     -67.79580000
H      -46.43620000     -36.16810000     -67.48660000
C      -41.97540000     -35.51410000     -70.59200000
H      -41.68100000     -34.91650000     -69.67980000
H      -41.20620000     -36.22800000     -70.86420000
S      -48.05150000     -34.88770000     -68.75800000
S      -41.86860000     -34.07480000     -71.86930000
C      -47.86520000     -33.24130000     -69.46280000
H      -48.78350000     -32.58380000     -69.35510000
H      -47.11090000     -32.63930000     -68.99760000
C      -43.33640000     -34.43420000     -73.06130000
H      -43.38840000     -35.53730000     -72.99900000
H      -43.01870000     -34.17290000     -74.07050000
C      -44.67100000     -33.88380000     -72.60610000
H      -45.40750000     -34.39670000     -73.28800000
H      -44.90460000     -34.25770000     -71.61750000
C      -47.52200000     -33.21860000     -70.98510000
H      -48.30380000     -33.74560000     -71.50600000
H      -46.62240000     -33.85470000     -71.10480000
C      -47.13630000     -31.85850000     -71.58630000
C      -47.93420000     -30.78370000     -71.49830000
C      -45.92470000     -31.55010000     -72.26910000
H      -48.92180000     -30.72450000     -71.07010000
C      -45.85040000     -30.25050000     -72.76170000
C      -44.80580000     -32.31310000     -72.65750000
C      -43.90940000     -31.62550000     -73.43020000
S      -47.26710000     -29.32420000     -72.28750000
S      -44.34700000     -29.88470000     -73.59690000
H      -43.00460000     -32.13530000     -73.91050000
