40
Properties=species:S:1:pos:R:3 #=T CELL(abcABC):=T 1.889726e+02=T 90.00000=T Traj:=T positionsangstrom=T Step:=T 0=T Bead:=T pbc="F F F"
C      -45.92940000     -29.90880000     -72.59400000
C      -46.16350000     -31.16010000     -71.94050000
C      -45.57450000     -32.32440000     -72.47650000
C      -44.70200000     -32.31280000     -73.52620000
C      -44.55760000     -31.11260000     -74.27590000
C      -45.28380000     -29.95080000     -73.79310000
H      -46.40920000     -29.03360000     -72.31030000
H      -45.70900000     -33.24600000     -71.93370000
H      -43.87810000     -31.12510000     -75.18250000
H      -45.14250000     -29.05320000     -74.47650000
C      -44.13360000     -33.64900000     -74.05310000
H      -44.23210000     -33.68840000     -75.14530000
H      -44.74110000     -34.47200000     -73.71020000
C      -47.06500000     -31.22610000     -70.72280000
H      -47.95030000     -30.58890000     -70.80580000
H      -47.34900000     -32.28600000     -70.57270000
S      -42.40090000     -33.93570000     -73.49900000
S      -46.27280000     -30.70630000     -69.15880000
C      -42.34670000     -33.69900000     -71.70390000
H      -41.29360000     -33.39870000     -71.45840000
H      -42.93430000     -32.81790000     -71.36090000
C      -44.67760000     -31.72840000     -69.17210000
H      -43.79680000     -31.16700000     -68.78320000
H      -44.43550000     -31.86220000     -70.21690000
C      -44.72890000     -33.08170000     -68.44220000
H      -43.75510000     -33.57260000     -68.47770000
H      -45.07190000     -32.97790000     -67.42880000
C      -42.74990000     -34.98220000     -70.89110000
H      -42.31850000     -34.89270000     -69.89480000
H      -42.25820000     -35.81050000     -71.42760000
C      -44.27860000     -35.28960000     -70.99620000
C      -44.67860000     -36.23870000     -71.92290000
C      -45.44480000     -34.84090000     -70.18820000
H      -43.89970000     -36.79440000     -72.43870000
C      -46.59870000     -35.51690000     -70.59940000
C      -45.72210000     -33.94260000     -69.14930000
C      -47.07090000     -33.85500000     -68.81320000
S      -46.35790000     -36.50070000     -71.98270000
S      -48.03350000     -34.99060000     -69.84360000
H      -47.47950000     -33.24860000     -68.01060000
