40
Properties=species:S:1:pos:R:3 #=T CELL(abcABC):=T 1.889726e+02=T 90.00000=T Traj:=T positionsangstrom=T Step:=T 0=T Bead:=T pbc="F F F"
C      -46.51600000     -34.59730000     -72.85070000
C      -47.30980000     -34.61810000     -71.74970000
C      -46.87120000     -35.12870000     -70.54270000
C      -45.59710000     -35.76620000     -70.47710000
C      -44.79330000     -35.74420000     -71.62380000
C      -45.23380000     -35.08790000     -72.80160000
H      -46.92770000     -34.25810000     -73.82240000
H      -47.53450000     -35.15760000     -69.59660000
H      -43.77720000     -36.14220000     -71.50810000
H      -44.64350000     -35.23130000     -73.67230000
C      -45.17070000     -36.52940000     -69.18620000
H      -44.26790000     -37.08910000     -69.30390000
H      -46.06140000     -37.17270000     -68.97050000
C      -48.74030000     -34.18860000     -71.73440000
H      -49.32430000     -34.88810000     -72.34980000
H      -49.03080000     -34.18190000     -70.71180000
S      -45.06160000     -35.33930000     -67.78310000
S      -48.79580000     -32.50980000     -72.54860000
C      -43.57690000     -34.30550000     -68.23530000
H      -43.00640000     -34.03450000     -67.37110000
H      -42.86820000     -34.94660000     -68.83110000
C      -48.16360000     -31.30430000     -71.27490000
H      -48.91740000     -31.11280000     -70.49070000
H      -48.13290000     -30.29720000     -71.75440000
C      -46.76070000     -31.48540000     -70.64470000
H      -46.53020000     -30.58940000     -70.11150000
H      -46.71530000     -32.23240000     -69.89360000
C      -44.08120000     -33.14200000     -69.07840000
H      -43.83100000     -32.14460000     -68.54750000
H      -45.14340000     -33.15390000     -69.00020000
C      -43.54690000     -32.92510000     -70.49340000
C      -42.24100000     -33.20900000     -70.78380000
C      -44.27000000     -32.20690000     -71.53310000
H      -41.58090000     -33.69190000     -70.00170000
C      -43.49400000     -32.07390000     -72.71190000
C      -45.64120000     -31.67940000     -71.64400000
C      -45.77410000     -31.12260000     -72.88310000
S      -41.84520000     -32.72790000     -72.50500000
S      -44.38730000     -31.17010000     -73.97940000
H      -46.61660000     -30.58300000     -73.23180000
