40
Properties=species:S:1:pos:R:3 #=T CELL(abcABC):=T 1.889726e+02=T 90.00000=T Traj:=T positionsangstrom=T Step:=T 0=T Bead:=T pbc="F F F"
C      -46.50340000     -34.56670000     -72.77080000
C      -47.29310000     -34.64650000     -71.60280000
C      -46.79810000     -35.34500000     -70.49120000
C      -45.48670000     -35.88830000     -70.47200000
C      -44.69570000     -35.61080000     -71.61000000
C      -45.21260000     -35.02300000     -72.78330000
H      -46.93610000     -34.09730000     -73.64090000
H      -47.42090000     -35.60950000     -69.62250000
H      -43.66460000     -35.93260000     -71.63100000
H      -44.49120000     -34.98480000     -73.63560000
C      -44.91730000     -36.70410000     -69.36370000
H      -43.89780000     -37.04000000     -69.48150000
H      -45.48490000     -37.63000000     -69.02040000
C      -48.67420000     -34.00920000     -71.49160000
H      -49.35750000     -34.66290000     -72.09820000
H      -49.09540000     -34.01600000     -70.48640000
S      -44.80830000     -35.63630000     -67.74000000
S      -49.00430000     -32.38450000     -72.35260000
C      -43.60770000     -34.42370000     -68.35580000
H      -43.14160000     -34.08660000     -67.50390000
H      -42.89870000     -34.95300000     -69.01630000
C      -48.17630000     -31.10880000     -71.21130000
H      -48.81230000     -30.94120000     -70.35560000
H      -48.16590000     -30.21090000     -71.84750000
C      -46.80280000     -31.66490000     -70.77920000
H      -46.44340000     -31.23450000     -69.78410000
H      -46.94260000     -32.77080000     -70.68430000
C      -44.20570000     -33.16820000     -69.07270000
H      -43.87990000     -32.33790000     -68.45560000
H      -45.32070000     -33.25500000     -69.09620000
C      -43.65080000     -32.76970000     -70.49920000
C      -42.39670000     -33.17520000     -70.91610000
C      -44.37480000     -32.09120000     -71.56120000
H      -41.71920000     -33.61680000     -70.25280000
C      -43.54000000     -31.83360000     -72.66380000
C      -45.68580000     -31.64020000     -71.80010000
C      -45.84430000     -31.16360000     -73.09600000
S      -41.95580000     -32.60210000     -72.50290000
S      -44.30510000     -31.19120000     -74.08160000
H      -46.75420000     -30.75640000     -73.49590000
