40
Properties=species:S:1:pos:R:3 #=T CELL(abcABC):=T 1.889726e+02=T 90.00000=T Traj:=T positionsangstrom=T Step:=T 0=T Bead:=T pbc="F F F"
C      -46.57280000     -34.35220000     -72.59840000
C      -47.30360000     -34.60800000     -71.46280000
C      -46.79090000     -35.43880000     -70.44180000
C      -45.59970000     -36.10260000     -70.58450000
C      -44.84290000     -35.81050000     -71.78370000
C      -45.32590000     -34.94610000     -72.72060000
H      -46.95680000     -33.75350000     -73.37600000
H      -47.24360000     -35.43930000     -69.48980000
H      -43.91650000     -36.33070000     -71.94750000
H      -44.55520000     -34.72660000     -73.57850000
C      -44.98060000     -36.76960000     -69.41800000
H      -44.09340000     -37.33260000     -69.71650000
H      -45.60990000     -37.49620000     -68.98720000
C      -48.73410000     -34.15310000     -71.39930000
H      -49.43720000     -34.88770000     -71.81540000
H      -49.13710000     -34.02650000     -70.37350000
S      -44.51200000     -35.70660000     -67.93660000
S      -48.95740000     -32.47270000     -72.26160000
C      -43.59460000     -34.18010000     -68.44870000
H      -43.24540000     -33.75160000     -67.44600000
H      -42.65100000     -34.44870000     -68.96360000
C      -48.29100000     -31.26630000     -71.03200000
H      -48.73400000     -31.25860000     -70.02470000
H      -48.51020000     -30.37390000     -71.57880000
C      -46.73280000     -31.36130000     -70.66420000
H      -46.48360000     -30.34780000     -70.26120000
H      -46.65610000     -32.26300000     -69.98310000
C      -44.44770000     -33.20270000     -69.29100000
H      -44.90680000     -32.47230000     -68.68960000
H      -45.28550000     -33.80500000     -69.72240000
C      -43.72050000     -32.75720000     -70.51230000
C      -42.34940000     -32.95320000     -70.80400000
C      -44.38690000     -32.15280000     -71.63010000
H      -41.61200000     -33.37690000     -70.25510000
C      -43.56110000     -31.98260000     -72.74490000
C      -45.64290000     -31.52640000     -71.80440000
C      -45.79300000     -30.98110000     -73.10720000
S      -41.91520000     -32.52630000     -72.42860000
S      -44.34600000     -31.26410000     -74.09830000
H      -46.71650000     -30.52620000     -73.47920000
