40
Properties=species:S:1:pos:R:3 #=T CELL(abcABC):=T 1.889726e+02=T 90.00000=T Traj:=T positionsangstrom=T Step:=T 0=T Bead:=T pbc="F F F"
C      -43.56740000     -37.09770000     -71.06100000
C      -43.22890000     -35.94500000     -70.30380000
C      -44.13760000     -35.42360000     -69.38730000
C      -45.45640000     -35.87190000     -69.33530000
C      -45.78010000     -37.01150000     -70.07680000
C      -44.91100000     -37.52160000     -71.06640000
H      -42.87440000     -37.36630000     -71.87440000
H      -43.78430000     -34.62350000     -68.76790000
H      -46.67580000     -37.57580000     -69.94160000
H      -45.34990000     -38.38300000     -71.68670000
C      -46.36120000     -35.46810000     -68.22940000
H      -45.94010000     -34.68500000     -67.57480000
H      -46.57560000     -36.19700000     -67.42570000
C      -41.89300000     -35.32510000     -70.60650000
H      -41.36050000     -34.86520000     -69.76310000
H      -41.30040000     -36.17650000     -70.93610000
S      -48.03540000     -34.84800000     -68.67460000
S      -41.90920000     -34.03530000     -71.97300000
C      -47.53590000     -33.12830000     -69.47150000
H      -48.30720000     -32.48770000     -69.11860000
H      -46.57410000     -32.85970000     -69.06090000
C      -43.32940000     -34.53010000     -73.08330000
H      -43.45550000     -35.58310000     -73.20970000
H      -43.10620000     -34.09600000     -74.08010000
C      -44.61300000     -33.83230000     -72.60020000
H      -45.42930000     -34.30220000     -73.13530000
H      -44.76280000     -34.12820000     -71.56390000
C      -47.59230000     -33.32940000     -71.01930000
H      -48.56140000     -33.56370000     -71.34350000
H      -46.87620000     -34.10280000     -71.35030000
C      -47.22500000     -32.02500000     -71.62060000
C      -48.00960000     -30.92270000     -71.52200000
C      -46.00360000     -31.65890000     -72.30530000
H      -48.99590000     -30.89680000     -70.98320000
C      -45.99320000     -30.33170000     -72.77540000
C      -44.78400000     -32.35180000     -72.76610000
C      -43.96680000     -31.53950000     -73.53780000
S      -47.31930000     -29.41550000     -72.22010000
S      -44.47120000     -29.84980000     -73.53990000
H      -43.07600000     -31.78320000     -74.15890000
