40
Properties=species:S:1:pos:R:3 #=T CELL(abcABC):=T 1.889726e+02=T 90.00000=T Traj:=T positionsangstrom=T Step:=T 0=T Bead:=T pbc="F F F"
C      -46.38050000     -30.06380000     -72.84980000
C      -46.35270000     -31.33670000     -72.22120000
C      -45.47500000     -32.27660000     -72.68480000
C      -44.48750000     -32.01150000     -73.62580000
C      -44.45800000     -30.70180000     -74.15540000
C      -45.38110000     -29.76660000     -73.75170000
H      -47.21470000     -29.35980000     -72.60160000
H      -45.59660000     -33.23890000     -72.22620000
H      -43.70680000     -30.43120000     -74.89470000
H      -45.48480000     -28.86360000     -74.34170000
C      -43.65760000     -33.19660000     -74.07730000
H      -43.31710000     -32.93630000     -75.10870000
H      -44.20120000     -34.15270000     -74.15550000
C      -47.47900000     -31.56650000     -71.29030000
H      -48.30030000     -31.01590000     -71.65690000
H      -47.86170000     -32.65360000     -71.30590000
S      -42.07100000     -33.37890000     -73.15180000
S      -47.34480000     -31.25860000     -69.49220000
C      -42.45610000     -33.10000000     -71.34050000
H      -41.59480000     -32.64890000     -70.85480000
H      -43.36650000     -32.43170000     -71.30220000
C      -45.47310000     -31.40350000     -69.17170000
H      -45.08950000     -30.52440000     -68.61380000
H      -45.02790000     -31.32040000     -70.15900000
C      -45.14560000     -32.71020000     -68.42670000
H      -44.07620000     -32.77200000     -68.34540000
H      -45.56630000     -32.62150000     -67.45560000
C      -42.69790000     -34.42230000     -70.63460000
H      -42.51980000     -34.30930000     -69.55230000
H      -41.89350000     -35.14880000     -71.07140000
C      -44.02740000     -35.16040000     -70.84910000
C      -44.07490000     -36.19070000     -71.77890000
C      -45.30390000     -34.87510000     -70.20370000
H      -43.28540000     -36.57750000     -72.42630000
C      -46.28220000     -35.83120000     -70.63370000
C      -45.78010000     -33.93820000     -69.13490000
C      -47.01350000     -34.30180000     -68.76770000
S      -45.69330000     -36.85720000     -71.94440000
S      -47.77820000     -35.54010000     -69.75380000
H      -47.58750000     -33.78390000     -68.06020000
