40
Properties=species:S:1:pos:R:3 #=T CELL(abcABC):=T 1.889726e+02=T 90.00000=T Traj:=T positionsangstrom=T Step:=T 0=T Bead:=T pbc="F F F"
C      -46.37760000     -29.98800000     -72.76690000
C      -46.52410000     -31.31540000     -72.24810000
C      -45.62680000     -32.30260000     -72.75140000
C      -44.59460000     -32.08770000     -73.61520000
C      -44.46250000     -30.73250000     -74.05150000
C      -45.35050000     -29.72350000     -73.64940000
H      -47.00840000     -29.22720000     -72.29860000
H      -45.77530000     -33.31030000     -72.41130000
H      -43.72140000     -30.42070000     -74.74760000
H      -45.21510000     -28.70710000     -74.00470000
C      -43.61670000     -33.19590000     -73.99710000
H      -43.38970000     -33.09110000     -75.03880000
H      -44.13570000     -34.15250000     -73.79520000
C      -47.56280000     -31.75460000     -71.32980000
H      -48.50880000     -31.19550000     -71.50360000
H      -47.67390000     -32.80340000     -71.43130000
S      -42.03010000     -33.19320000     -73.07830000
S      -47.11480000     -31.14260000     -69.55830000
C      -42.55550000     -32.94280000     -71.36960000
H      -41.70780000     -32.43330000     -70.94610000
H      -43.33290000     -32.22850000     -71.36450000
C      -45.35990000     -31.59350000     -69.33400000
H      -44.78780000     -30.73540000     -68.82810000
H      -44.90100000     -31.59860000     -70.29800000
C      -45.15730000     -32.85160000     -68.53540000
H      -44.14440000     -33.12260000     -68.25880000
H      -45.64560000     -32.61930000     -67.52650000
C      -42.80540000     -34.23560000     -70.58400000
H      -42.75450000     -33.97550000     -69.54260000
H      -41.97860000     -34.85930000     -70.80930000
C      -44.06700000     -34.98310000     -70.92330000
C      -44.03760000     -36.10080000     -71.75920000
C      -45.36500000     -34.80950000     -70.25640000
H      -43.26070000     -36.38950000     -72.47790000
C      -46.29760000     -35.81110000     -70.65470000
C      -45.90590000     -33.99550000     -69.18150000
C      -47.15690000     -34.37040000     -68.81290000
S      -45.61230000     -36.95620000     -71.88080000
S      -47.79510000     -35.76130000     -69.76830000
H      -47.71370000     -34.03650000     -67.99290000
