40
Properties=species:S:1:pos:R:3 #=T CELL(abcABC):=T 1.889726e+02=T 90.00000=T Traj:=T positionsangstrom=T Step:=T 0=T Bead:=T pbc="F F F"
C      -46.36940000     -30.10570000     -72.71410000
C      -46.59360000     -31.39380000     -72.39090000
C      -45.76720000     -32.41920000     -72.92460000
C      -44.63320000     -32.14730000     -73.73420000
C      -44.55280000     -30.80950000     -74.10820000
C      -45.33580000     -29.81190000     -73.60100000
H      -46.86410000     -29.26910000     -72.18280000
H      -45.89200000     -33.47880000     -72.60990000
H      -43.72450000     -30.41000000     -74.75330000
H      -45.24180000     -28.78060000     -73.87980000
C      -43.61600000     -33.21800000     -73.96420000
H      -43.26450000     -33.12920000     -75.03640000
H      -44.03540000     -34.20460000     -73.78310000
C      -47.54030000     -31.73430000     -71.24820000
H      -48.57230000     -31.64010000     -71.31750000
H      -47.40650000     -32.81630000     -71.09680000
S      -42.06750000     -32.92170000     -73.00390000
S      -47.20760000     -30.89280000     -69.64670000
C      -42.68340000     -32.79790000     -71.22620000
H      -42.01490000     -32.10370000     -70.76600000
H      -43.66930000     -32.35960000     -71.16010000
C      -45.49140000     -31.55170000     -69.14980000
H      -44.93330000     -30.85610000     -68.56750000
H      -44.82340000     -31.57660000     -70.01080000
C      -45.60220000     -32.87370000     -68.41390000
H      -44.61870000     -32.97520000     -67.86220000
H      -46.25300000     -32.79280000     -67.55570000
C      -42.77500000     -34.10750000     -70.42010000
H      -42.88660000     -33.70010000     -69.44460000
H      -41.82140000     -34.63430000     -70.44430000
C      -43.90650000     -35.02510000     -70.82020000
C      -43.81750000     -36.09710000     -71.73280000
C      -45.29760000     -34.90210000     -70.21500000
H      -42.94700000     -36.25870000     -72.36740000
C      -46.08750000     -35.91530000     -70.67540000
C      -46.03070000     -34.10450000     -69.23000000
C      -47.27290000     -34.59900000     -68.89990000
S      -45.36150000     -36.93240000     -71.94340000
S      -47.66450000     -35.99460000     -69.88840000
H      -48.12600000     -34.07360000     -68.37030000
