40
Properties=species:S:1:pos:R:3 #=T CELL(abcABC):=T 1.889726e+02=T 90.00000=T Traj:=T positionsangstrom=T Step:=T 0=T Bead:=T pbc="F F F"
C      -46.44290000     -29.94240000     -72.81740000
C      -46.64160000     -31.25750000     -72.25480000
C      -45.71760000     -32.23460000     -72.56240000
C      -44.70000000     -32.03750000     -73.50430000
C      -44.54750000     -30.76850000     -74.07350000
C      -45.45870000     -29.71780000     -73.75910000
H      -47.20460000     -29.21130000     -72.70050000
H      -45.81340000     -33.16630000     -72.10050000
H      -43.73430000     -30.59130000     -74.74120000
H      -45.36600000     -28.76240000     -74.24150000
C      -43.83740000     -33.21410000     -73.92370000
H      -43.53250000     -33.27270000     -74.97680000
H      -44.25860000     -34.19790000     -73.53200000
C      -47.75710000     -31.55940000     -71.26100000
H      -48.63130000     -30.95770000     -71.57820000
H      -48.04670000     -32.57950000     -71.19450000
S      -42.14640000     -33.16310000     -73.10200000
S      -47.42930000     -31.00410000     -69.49280000
C      -42.55280000     -32.67000000     -71.35480000
H      -41.67320000     -32.05330000     -71.02360000
H      -43.41060000     -32.00230000     -71.45800000
C      -45.81660000     -31.70330000     -69.17120000
H      -45.40680000     -30.90020000     -68.51060000
H      -45.25120000     -31.71300000     -70.09730000
C      -45.77520000     -33.03300000     -68.38970000
H      -44.78270000     -33.19500000     -68.01300000
H      -46.53240000     -32.92220000     -67.63270000
C      -42.85570000     -33.73080000     -70.24670000
H      -43.34700000     -33.16260000     -69.40110000
H      -41.87690000     -33.91640000     -69.79480000
C      -43.76590000     -34.90540000     -70.53570000
C      -43.51640000     -35.85680000     -71.51450000
C      -45.17100000     -34.93760000     -70.06740000
H      -42.59960000     -35.92020000     -72.09940000
C      -45.83890000     -35.99460000     -70.71400000
C      -46.10580000     -34.23200000     -69.20690000
C      -47.36900000     -34.74970000     -69.19430000
S      -44.93610000     -36.95920000     -71.79170000
S      -47.52350000     -36.07650000     -70.42870000
H      -48.15980000     -34.59140000     -68.45550000
