40
Properties=species:S:1:pos:R:3 #=T CELL(abcABC):=T 1.889726e+02=T 90.00000=T Traj:=T positionsangstrom=T Step:=T 0=T Bead:=T pbc="F F F"
C      -46.57210000     -29.97490000     -72.81720000
C      -46.79450000     -31.21500000     -72.20980000
C      -45.87780000     -32.21650000     -72.55400000
C      -44.80770000     -32.04510000     -73.46270000
C      -44.61510000     -30.77180000     -74.06730000
C      -45.56070000     -29.74900000     -73.77630000
H      -47.07760000     -29.01000000     -72.48130000
H      -45.98030000     -33.20420000     -72.07260000
H      -43.77920000     -30.56340000     -74.73570000
H      -45.44370000     -28.75890000     -74.15710000
C      -43.90940000     -33.20330000     -73.76200000
H      -43.68420000     -33.34240000     -74.81680000
H      -44.46670000     -34.08130000     -73.45460000
C      -47.86390000     -31.54120000     -71.26200000
H      -48.84530000     -31.07020000     -71.52080000
H      -48.00650000     -32.69190000     -71.23520000
S      -42.23190000     -33.22130000     -72.93450000
S      -47.50070000     -31.06220000     -69.53370000
C      -42.45470000     -32.69850000     -71.21290000
H      -41.54680000     -32.14870000     -70.90320000
H      -43.25650000     -31.94270000     -71.28730000
C      -45.76950000     -31.68810000     -69.04110000
H      -45.30460000     -30.93670000     -68.32350000
H      -45.07090000     -31.61520000     -69.90960000
C      -45.87700000     -33.08700000     -68.43550000
H      -44.84650000     -33.34890000     -68.02200000
H      -46.46800000     -33.07700000     -67.52070000
C      -42.65040000     -33.77860000     -70.06360000
H      -42.94090000     -33.22380000     -69.13900000
H      -41.69380000     -34.28610000     -69.90170000
C      -43.71550000     -34.85070000     -70.45240000
C      -43.34480000     -35.79610000     -71.40390000
C      -45.14400000     -34.85240000     -70.24800000
H      -42.45590000     -35.73690000     -71.98410000
C      -45.78000000     -35.84630000     -70.97390000
C      -46.17870000     -34.23850000     -69.36270000
C      -47.41360000     -34.79090000     -69.45370000
S      -44.67550000     -36.81710000     -71.91190000
S      -47.47220000     -36.16190000     -70.47100000
H      -48.22660000     -34.57760000     -68.85640000
