40
Properties=species:S:1:pos:R:3 #=T CELL(abcABC):=T 1.889726e+02=T 90.00000=T Traj:=T positionsangstrom=T Step:=T 0=T Bead:=T pbc="F F F"
C      -43.33560000     -30.67440000     -69.43890000
C      -44.77130000     -30.42430000     -69.59620000
C      -45.35260000     -30.37700000     -70.86060000
C      -44.54640000     -30.53150000     -72.00010000
C      -43.20150000     -30.86890000     -71.90140000
C      -42.57590000     -30.91750000     -70.61280000
H      -42.85810000     -30.65750000     -68.47540000
H      -46.40480000     -30.18790000     -71.02530000
H      -42.65990000     -31.03010000     -72.80090000
H      -41.54620000     -30.77090000     -70.43720000
C      -45.07330000     -30.08610000     -73.33240000
H      -44.16560000     -29.91900000     -73.96330000
H      -45.57750000     -29.11410000     -73.34620000
C      -45.54760000     -30.32590000     -68.32360000
H      -44.84780000     -30.63770000     -67.53040000
H      -45.87910000     -29.31210000     -68.17700000
S      -46.25530000     -31.26830000     -74.04690000
S      -46.98890000     -31.33820000     -68.39760000
C      -45.62350000     -32.85450000     -73.50200000
H      -44.64020000     -32.98280000     -74.02460000
H      -45.44390000     -32.76080000     -72.42420000
C      -46.30590000     -33.04820000     -68.74490000
H      -46.59070000     -33.63730000     -67.85360000
H      -45.25720000     -33.04940000     -68.73550000
C      -46.71760000     -33.73550000     -70.07400000
H      -47.72230000     -34.09510000     -70.05140000
H      -46.65940000     -32.99550000     -70.87080000
C      -46.52670000     -34.01470000     -73.79960000
H      -46.52970000     -34.15400000     -74.87200000
H      -47.47670000     -33.80990000     -73.30580000
C      -45.91960000     -35.29440000     -73.19190000
C      -45.46220000     -36.34800000     -73.95960000
C      -45.59700000     -35.52150000     -71.77540000
H      -45.60300000     -36.36010000     -74.99730000
C      -44.95650000     -36.72770000     -71.60110000
C      -45.87290000     -34.94470000     -70.41250000
C      -45.30100000     -35.70280000     -69.42420000
S      -44.69830000     -37.64120000     -73.10390000
S      -44.36270000     -37.07950000     -70.02630000
H      -45.27830000     -35.44430000     -68.33590000
