40
Properties=species:S:1:pos:R:3 #=T CELL(abcABC):=T 1.889726e+02=T 90.00000=T Traj:=T positionsangstrom=T Step:=T 0=T Bead:=T pbc="F F F"
C      -46.71090000     -30.08810000     -72.66680000
C      -46.91910000     -31.40190000     -72.26400000
C      -45.94440000     -32.44410000     -72.59880000
C      -44.84750000     -32.00000000     -73.37530000
C      -44.59430000     -30.63840000     -73.69920000
C      -45.57410000     -29.71400000     -73.35730000
H      -47.45470000     -29.35320000     -72.38970000
H      -46.12900000     -33.44960000     -72.24370000
H      -43.63870000     -30.47170000     -74.25240000
H      -45.36450000     -28.67920000     -73.69450000
C      -43.73450000     -32.98240000     -73.70770000
H      -43.49450000     -33.03230000     -74.83720000
H      -44.03300000     -34.05710000     -73.49020000
C      -48.04840000     -31.77340000     -71.35370000
H      -48.99810000     -31.30820000     -71.68590000
H      -48.18870000     -32.79490000     -71.34020000
S      -42.15390000     -32.57880000     -72.73990000
S      -47.79530000     -31.14260000     -69.62610000
C      -42.50090000     -32.60590000     -70.88300000
H      -41.69130000     -31.95270000     -70.40740000
H      -43.42080000     -31.98720000     -70.56130000
C      -46.11360000     -31.61030000     -69.27650000
H      -45.80700000     -30.80550000     -68.49710000
H      -45.47320000     -31.44040000     -70.11540000
C      -45.74290000     -33.01860000     -68.74080000
H      -44.68000000     -32.94440000     -68.54600000
H      -46.15500000     -33.09170000     -67.76520000
C      -42.60300000     -33.95210000     -70.14620000
H      -42.80340000     -33.74750000     -69.12790000
H      -41.62690000     -34.45150000     -70.15970000
C      -43.66180000     -34.87710000     -70.64220000
C      -43.22690000     -35.99210000     -71.32710000
C      -45.10400000     -34.90710000     -70.44320000
H      -42.28730000     -36.12930000     -71.84830000
C      -45.69270000     -36.07220000     -70.99170000
C      -46.06250000     -34.21660000     -69.52630000
C      -47.31040000     -34.74080000     -69.65290000
S      -44.47090000     -37.15840000     -71.69660000
S      -47.42900000     -36.10600000     -70.76670000
H      -48.08890000     -34.48880000     -68.93210000
