40
Properties=species:S:1:pos:R:3 #=T CELL(abcABC):=T 1.889726e+02=T 90.00000=T Traj:=T positionsangstrom=T Step:=T 0=T Bead:=T pbc="F F F"
C      -46.98780000     -34.64990000     -72.28470000
C      -47.28360000     -34.98970000     -70.95060000
C      -46.36720000     -35.72580000     -70.22590000
C      -45.11400000     -36.08400000     -70.79870000
C      -44.82170000     -35.82770000     -72.11410000
C      -45.77140000     -35.08540000     -72.84930000
H      -47.66180000     -33.99040000     -72.83890000
H      -46.47790000     -36.00970000     -69.21150000
H      -43.81740000     -35.92990000     -72.62900000
H      -45.50940000     -34.82610000     -73.84280000
C      -44.13900000     -36.97060000     -69.92640000
H      -43.57570000     -37.64780000     -70.60780000
H      -44.60080000     -37.65530000     -69.21150000
C      -48.57450000     -34.47450000     -70.31870000
H      -49.48190000     -35.02560000     -70.61940000
H      -48.47140000     -34.53960000     -69.27660000
S      -43.03590000     -36.03240000     -68.77730000
S      -48.92350000     -32.74730000     -70.85280000
C      -42.52680000     -34.76940000     -69.99100000
H      -41.49120000     -34.53720000     -69.92150000
H      -42.60220000     -35.27230000     -70.95110000
C      -47.92200000     -31.68300000     -69.56700000
H      -48.31960000     -31.99150000     -68.52790000
H      -48.21650000     -30.64360000     -69.73370000
C      -46.39600000     -31.92770000     -69.80970000
H      -45.85770000     -31.34830000     -69.04760000
H      -46.20020000     -32.98800000     -69.61890000
C      -43.41330000     -33.43060000     -69.94830000
H      -42.91150000     -32.71280000     -69.27140000
H      -44.37970000     -33.73990000     -69.54520000
C      -43.51090000     -32.78100000     -71.31100000
C      -42.60150000     -32.90820000     -72.33450000
C      -44.59240000     -31.86070000     -71.65700000
H      -41.70550000     -33.43600000     -72.09260000
C      -44.41530000     -31.36940000     -72.89650000
C      -45.90810000     -31.44910000     -71.14410000
C      -46.62020000     -30.71660000     -72.05680000
S      -42.98470000     -31.90490000     -73.73980000
S      -45.64440000     -30.29270000     -73.48570000
H      -47.48800000     -30.17030000     -71.73920000
