40
Properties=species:S:1:pos:R:3 #=T CELL(abcABC):=T 1.889726e+02=T 90.00000=T Traj:=T positionsangstrom=T Step:=T 0=T Bead:=T pbc="F F F"
C      -47.16960000     -34.31870000     -72.41930000
C      -47.25730000     -34.69540000     -71.05240000
C      -46.24850000     -35.48590000     -70.47340000
C      -45.11290000     -35.93260000     -71.26070000
C      -44.99220000     -35.40280000     -72.55070000
C      -46.02910000     -34.66710000     -73.08100000
H      -47.94920000     -33.64710000     -72.78290000
H      -46.51290000     -35.97720000     -69.57050000
H      -44.09470000     -35.62880000     -73.16980000
H      -45.91610000     -34.21440000     -74.08770000
C      -44.11210000     -36.92420000     -70.78660000
H      -43.31420000     -37.19170000     -71.48710000
H      -44.52520000     -37.86200000     -70.41470000
C      -48.52140000     -34.38920000     -70.26720000
H      -49.42200000     -34.80040000     -70.82440000
H      -48.44430000     -34.83100000     -69.29470000
S      -43.21610000     -36.14730000     -69.29920000
S      -48.92640000     -32.56900000     -69.93030000
C      -42.32570000     -34.72630000     -70.13260000
H      -41.28520000     -34.72910000     -69.74900000
H      -42.37880000     -34.86090000     -71.24300000
C      -47.50330000     -31.95130000     -68.92650000
H      -47.49270000     -32.35210000     -67.87490000
H      -47.68810000     -30.91160000     -68.72650000
C      -46.11690000     -32.18420000     -69.56140000
H      -45.32080000     -31.69040000     -69.01040000
H      -45.97470000     -33.27050000     -69.50130000
C      -43.02960000     -33.33210000     -69.98110000
H      -42.37730000     -32.57330000     -69.49180000
H      -43.86270000     -33.52430000     -69.36950000
C      -43.38130000     -32.78270000     -71.28870000
C      -42.41570000     -32.68010000     -72.30000000
C      -44.55360000     -31.99750000     -71.64100000
H      -41.39340000     -33.06010000     -72.15850000
C      -44.48080000     -31.49480000     -72.93330000
C      -45.81690000     -31.69250000     -70.94170000
C      -46.64610000     -30.99720000     -71.77050000
S      -43.04650000     -31.92270000     -73.76360000
S      -45.96760000     -30.75440000     -73.37110000
H      -47.67280000     -30.59830000     -71.45190000
