40
Properties=species:S:1:pos:R:3 #=T CELL(abcABC):=T 1.889726e+02=T 90.00000=T Traj:=T positionsangstrom=T Step:=T 0=T Bead:=T pbc="F F F"
C      -47.47540000     -34.51100000     -72.27460000
C      -47.32010000     -34.82680000     -70.93410000
C      -46.21960000     -35.59040000     -70.57740000
C      -45.27430000     -35.97060000     -71.51790000
C      -45.35100000     -35.56600000     -72.85680000
C      -46.48950000     -34.86910000     -73.23040000
H      -48.35330000     -33.98250000     -72.52500000
H      -46.07090000     -36.08720000     -69.54730000
H      -44.60780000     -35.60740000     -73.61150000
H      -46.38530000     -34.48410000     -74.25750000
C      -44.04000000     -36.88150000     -71.09520000
H      -43.37910000     -37.02260000     -71.95830000
H      -44.41390000     -37.89410000     -70.91340000
C      -48.39010000     -34.38650000     -69.93100000
H      -49.46720000     -34.63010000     -70.23300000
H      -48.14040000     -34.77650000     -68.93810000
S      -43.27150000     -36.16170000     -69.65900000
S      -48.67980000     -32.49970000     -69.75810000
C      -42.32590000     -34.85860000     -70.35490000
H      -41.34050000     -34.95800000     -69.93790000
H      -42.15670000     -35.03440000     -71.44390000
C      -47.35500000     -31.82480000     -68.78100000
H      -47.32590000     -32.15490000     -67.77230000
H      -47.43540000     -30.73370000     -68.75610000
C      -45.92880000     -32.08550000     -69.26490000
H      -45.22650000     -31.66360000     -68.55400000
H      -45.71440000     -33.15260000     -69.21860000
C      -42.71600000     -33.41390000     -70.12080000
H      -41.82460000     -32.97060000     -69.68380000
H      -43.50370000     -33.36350000     -69.33650000
C      -43.18340000     -32.70280000     -71.36230000
C      -42.36160000     -32.60700000     -72.50110000
C      -44.47010000     -32.05600000     -71.53000000
H      -41.41310000     -33.14680000     -72.48560000
C      -44.57040000     -31.44910000     -72.78660000
C      -45.63760000     -31.68720000     -70.72220000
C      -46.55370000     -30.99050000     -71.50980000
S      -43.18640000     -31.71280000     -73.77710000
S      -46.08310000     -30.77110000     -73.17150000
H      -47.42370000     -30.53740000     -71.18870000
