40
Properties=species:S:1:pos:R:3 #=T CELL(abcABC):=T 1.889726e+02=T 90.00000=T Traj:=T positionsangstrom=T Step:=T 0=T Bead:=T pbc="F F F"
C      -43.30730000     -30.86670000     -69.57330000
C      -44.72170000     -30.53430000     -69.73060000
C      -45.17730000     -30.16230000     -70.98880000
C      -44.39000000     -30.30710000     -72.14580000
C      -43.01990000     -30.51050000     -71.99610000
C      -42.50150000     -30.70190000     -70.71060000
H      -42.92730000     -31.18800000     -68.56050000
H      -46.24430000     -29.94020000     -71.13630000
H      -42.40760000     -30.40790000     -72.89230000
H      -41.49390000     -31.00870000     -70.62770000
C      -45.06730000     -30.05800000     -73.48380000
H      -44.35000000     -30.17360000     -74.29470000
H      -45.59130000     -29.08710000     -73.61530000
C      -45.63370000     -30.36220000     -68.50090000
H      -45.07050000     -30.53620000     -67.57030000
H      -46.18200000     -29.34680000     -68.51730000
S      -46.48210000     -31.28610000     -73.77320000
S      -47.17820000     -31.50360000     -68.56190000
C      -45.60510000     -32.92170000     -73.69490000
H      -45.07160000     -33.12420000     -74.60150000
H      -44.83600000     -32.84860000     -72.93330000
C      -46.47060000     -33.16700000     -68.68570000
H      -47.10760000     -33.85830000     -68.02580000
H      -45.43890000     -33.06760000     -68.23470000
C      -46.42760000     -33.65960000     -70.16890000
H      -47.44560000     -33.72160000     -70.63290000
H      -45.94030000     -32.87650000     -70.76600000
C      -46.62050000     -33.94850000     -73.43770000
H      -47.33490000     -34.04170000     -74.23250000
H      -47.27590000     -33.60450000     -72.58150000
C      -45.98390000     -35.27060000     -73.00320000
C      -45.75990000     -36.31270000     -73.85410000
C      -45.58440000     -35.60310000     -71.59320000
H      -46.06960000     -36.45820000     -74.89200000
C      -44.79080000     -36.71170000     -71.58790000
C      -45.65760000     -34.91610000     -70.33670000
C      -44.94230000     -35.60100000     -69.36160000
S      -44.76840000     -37.69680000     -73.07330000
S      -44.24100000     -37.14200000     -70.01530000
H      -44.98220000     -35.36880000     -68.30570000
