40
Properties=species:S:1:pos:R:3 #=T CELL(abcABC):=T 1.889726e+02=T 90.00000=T Traj:=T positionsangstrom=T Step:=T 0=T Bead:=T pbc="F F F"
C      -46.83660000     -30.52950000     -73.44290000
C      -46.69710000     -31.78260000     -72.74840000
C      -45.48560000     -32.38650000     -72.66540000
C      -44.32300000     -31.68800000     -73.19890000
C      -44.39670000     -30.39110000     -73.75070000
C      -45.70150000     -29.85800000     -73.93120000
H      -47.80350000     -30.02060000     -73.65590000
H      -45.28660000     -33.39170000     -72.18120000
H      -43.54490000     -29.93990000     -74.07590000
H      -45.97480000     -28.91850000     -74.39610000
C      -42.98210000     -32.39940000     -73.08030000
H      -42.46500000     -32.28300000     -74.02920000
H      -43.16040000     -33.50600000     -73.08180000
C      -47.95730000     -32.43580000     -72.34210000
H      -48.86010000     -32.23810000     -72.87170000
H      -47.79480000     -33.54240000     -72.42960000
S      -41.94040000     -32.17220000     -71.65890000
S      -48.34010000     -31.85680000     -70.55750000
C      -43.18110000     -31.92880000     -70.32570000
H      -42.68630000     -31.07040000     -69.72810000
H      -44.07460000     -31.53050000     -70.90540000
C      -46.78700000     -32.04000000     -69.52090000
H      -46.87050000     -31.23400000     -68.75580000
H      -45.93680000     -31.88440000     -70.09750000
C      -46.89540000     -33.36790000     -68.73420000
H      -46.18900000     -33.38950000     -67.89220000
H      -47.90860000     -33.52320000     -68.31670000
C      -43.45250000     -33.12380000     -69.34460000
H      -44.11620000     -32.77160000     -68.56430000
H      -42.47020000     -33.32490000     -68.85250000
C      -43.85890000     -34.37480000     -70.06530000
C      -42.96250000     -35.13310000     -70.77850000
C      -45.27490000     -34.81810000     -70.21640000
H      -41.93600000     -34.96480000     -70.68100000
C      -45.29990000     -35.96390000     -71.01690000
C      -46.57220000     -34.55160000     -69.67250000
C      -47.48640000     -35.52550000     -69.98390000
S      -43.76280000     -36.50950000     -71.54310000
S      -46.95080000     -36.75690000     -71.00230000
H      -48.50040000     -35.57950000     -69.55390000
