40
Properties=species:S:1:pos:R:3 #=T CELL(abcABC):=T 1.889726e+02=T 90.00000=T Traj:=T positionsangstrom=T Step:=T 0=T Bead:=T pbc="F F F"
C      -46.79490000     -30.56700000     -73.35620000
C      -46.65180000     -31.87990000     -72.86510000
C      -45.37680000     -32.46590000     -72.79180000
C      -44.26170000     -31.72170000     -73.15930000
C      -44.36410000     -30.39800000     -73.71160000
C      -45.61160000     -29.90210000     -73.87430000
H      -47.80270000     -30.07030000     -73.31090000
H      -45.27710000     -33.53280000     -72.34810000
H      -43.49620000     -29.83720000     -74.01640000
H      -45.73660000     -28.86400000     -74.34640000
C      -42.94470000     -32.42560000     -73.01660000
H      -42.18860000     -32.05840000     -73.79940000
H      -42.89520000     -33.50260000     -73.13520000
C      -47.92700000     -32.56140000     -72.32390000
H      -48.76530000     -32.24440000     -72.89410000
H      -47.75690000     -33.64020000     -72.20930000
S      -41.95440000     -31.91000000     -71.43550000
S      -48.57380000     -31.95960000     -70.73580000
C      -43.22480000     -31.77320000     -70.09220000
H      -42.93430000     -30.98210000     -69.41710000
H      -44.15490000     -31.61730000     -70.57000000
C      -47.10440000     -32.11140000     -69.67170000
H      -47.07640000     -31.19460000     -68.96130000
H      -46.26060000     -31.96650000     -70.33040000
C      -46.86920000     -33.37460000     -68.86550000
H      -46.08910000     -33.06710000     -68.18440000
H      -47.84970000     -33.54730000     -68.35330000
C      -43.39030000     -33.15050000     -69.26190000
H      -44.07130000     -33.02030000     -68.41090000
H      -42.46350000     -33.44600000     -68.81180000
C      -43.85970000     -34.32940000     -70.13270000
C      -42.96660000     -35.02380000     -70.92080000
C      -45.20520000     -34.93750000     -70.14490000
H      -41.90970000     -34.86450000     -70.95040000
C      -45.26330000     -36.09080000     -70.93780000
C      -46.47920000     -34.63550000     -69.62800000
C      -47.49450000     -35.49900000     -69.92520000
S      -43.72810000     -36.38410000     -71.66270000
S      -46.88550000     -36.84190000     -70.99620000
H      -48.45340000     -35.47100000     -69.50020000
