40
Properties=species:S:1:pos:R:3 #=T CELL(abcABC):=T 1.889726e+02=T 90.00000=T Traj:=T positionsangstrom=T Step:=T 0=T Bead:=T pbc="F F F"
C      -46.65730000     -30.70700000     -73.43040000
C      -46.50950000     -31.96850000     -73.01840000
C      -45.16300000     -32.44800000     -72.76830000
C      -44.07730000     -31.59760000     -72.76200000
C      -44.30890000     -30.28810000     -73.15550000
C      -45.58620000     -29.86170000     -73.62090000
H      -47.77440000     -30.31160000     -73.57320000
H      -45.16260000     -33.51040000     -72.37430000
H      -43.49170000     -29.66940000     -73.39160000
H      -45.60320000     -28.93150000     -74.01700000
C      -42.60910000     -31.97170000     -72.48970000
H      -41.84280000     -31.41820000     -73.17090000
H      -42.45840000     -33.04060000     -72.62590000
C      -47.73710000     -32.86470000     -72.81910000
H      -48.40770000     -32.87500000     -73.67670000
H      -47.32720000     -33.85350000     -72.60940000
S      -42.00870000     -31.55490000     -70.76700000
S      -48.68430000     -32.48340000     -71.22450000
C      -43.43440000     -31.99580000     -69.61170000
H      -43.48460000     -31.37900000     -68.73390000
H      -44.39100000     -31.89810000     -70.17560000
C      -47.37010000     -32.01170000     -70.05710000
H      -47.77660000     -31.37530000     -69.28910000
H      -46.59440000     -31.50040000     -70.60360000
C      -46.97000000     -33.23960000     -69.08370000
H      -46.14360000     -32.97310000     -68.38730000
H      -47.90480000     -33.47490000     -68.51210000
C      -43.37530000     -33.41940000     -69.05730000
H      -43.92130000     -33.43230000     -68.18300000
H      -42.40590000     -33.66590000     -68.74870000
C      -43.90060000     -34.48740000     -69.98040000
C      -43.00390000     -35.25710000     -70.63750000
C      -45.30590000     -34.89240000     -70.23280000
H      -41.95740000     -35.12830000     -70.68520000
C      -45.25230000     -35.99210000     -71.10920000
C      -46.66840000     -34.48920000     -69.84130000
C      -47.56350000     -35.38670000     -70.37310000
S      -43.70780000     -36.39480000     -71.71710000
S      -46.85010000     -36.62040000     -71.37840000
H      -48.60580000     -35.45820000     -70.13790000
