40
Properties=species:S:1:pos:R:3 #=T CELL(abcABC):=T 1.889726e+02=T 90.00000=T Traj:=T positionsangstrom=T Step:=T 0=T Bead:=T pbc="F F F"
C      -47.62660000     -33.98350000     -71.89560000
C      -47.07580000     -34.64010000     -70.81620000
C      -45.87930000     -35.39500000     -70.91430000
C      -45.21980000     -35.43760000     -72.12190000
C      -45.79400000     -34.72030000     -73.27880000
C      -46.95560000     -34.05290000     -73.13630000
H      -48.57620000     -33.48060000     -71.71170000
H      -45.43300000     -35.92730000     -70.11900000
H      -45.24250000     -34.52550000     -74.22730000
H      -47.38150000     -33.54130000     -73.99300000
C      -43.95610000     -36.27850000     -72.40410000
H      -43.45460000     -35.79570000     -73.24530000
H      -44.30260000     -37.34350000     -72.74880000
C      -47.73790000     -34.67760000     -69.48130000
H      -48.60580000     -35.33370000     -69.45420000
H      -47.01550000     -34.97800000     -68.67760000
S      -42.78850000     -36.47940000     -70.93810000
S      -48.52620000     -33.07370000     -69.03340000
C      -41.90580000     -34.94890000     -70.67840000
H      -41.17260000     -35.04630000     -69.81610000
H      -41.31850000     -34.58200000     -71.48870000
C      -47.07860000     -32.10200000     -68.27010000
H      -47.06360000     -32.39020000     -67.21300000
H      -47.38810000     -31.04080000     -68.37770000
C      -45.77870000     -32.37100000     -68.95430000
H      -44.97610000     -31.85390000     -68.32600000
H      -45.52100000     -33.53510000     -68.89840000
C      -42.77960000     -33.73200000     -70.24000000
H      -42.12380000     -32.99840000     -69.81440000
H      -43.49100000     -34.07560000     -69.48210000
C      -43.45220000     -33.00440000     -71.36810000
C      -42.80990000     -32.79240000     -72.55980000
C      -44.67600000     -32.10400000     -71.33680000
H      -41.90490000     -33.25240000     -72.78500000
C      -44.82240000     -31.47330000     -72.56740000
C      -45.73790000     -31.81690000     -70.41670000
C      -46.64570000     -30.92760000     -70.95810000
S      -43.59630000     -31.85380000     -73.72420000
S      -46.25880000     -30.47910000     -72.63410000
H      -47.62350000     -30.61080000     -70.56060000
