40
Properties=species:S:1:pos:R:3 #=T CELL(abcABC):=T 1.889726e+02=T 90.00000=T Traj:=T positionsangstrom=T Step:=T 0=T Bead:=T pbc="F F F"
C      -46.22410000     -30.15040000     -73.72770000
C      -46.31240000     -31.47200000     -73.29230000
C      -45.20190000     -31.97560000     -72.59050000
C      -44.01150000     -31.27350000     -72.40570000
C      -44.02590000     -29.92830000     -72.71880000
C      -45.11550000     -29.35680000     -73.38120000
H      -46.99050000     -29.63010000     -74.35470000
H      -45.11180000     -33.06280000     -72.42890000
H      -43.13940000     -29.32160000     -72.44850000
H      -45.11740000     -28.23820000     -73.49010000
C      -42.77470000     -32.07460000     -72.06230000
H      -41.99420000     -31.62620000     -72.66200000
H      -42.88660000     -33.10380000     -72.32930000
C      -47.40510000     -32.48810000     -73.48960000
H      -47.98160000     -32.27380000     -74.44100000
H      -46.92210000     -33.48440000     -73.58050000
S      -42.20050000     -31.83180000     -70.29540000
S      -48.66440000     -32.45950000     -72.03120000
C      -43.76110000     -31.78760000     -69.30510000
H      -43.56340000     -31.07520000     -68.45280000
H      -44.54400000     -31.42980000     -69.95940000
C      -47.63720000     -32.30360000     -70.37390000
H      -48.20750000     -31.55810000     -69.81740000
H      -46.69560000     -31.78480000     -70.56200000
C      -47.55690000     -33.59890000     -69.61830000
H      -47.25370000     -33.16030000     -68.64740000
H      -48.58370000     -33.97380000     -69.46400000
C      -44.20510000     -33.19260000     -68.81020000
H      -45.22430000     -33.15100000     -68.42510000
H      -43.55410000     -33.51660000     -67.97110000
C      -44.22870000     -34.38310000     -69.75880000
C      -43.10670000     -35.07610000     -70.19060000
C      -45.39670000     -35.07580000     -70.24750000
H      -42.14260000     -34.82910000     -69.90460000
C      -45.12140000     -36.18550000     -70.98660000
C      -46.82680000     -34.74780000     -70.25840000
C      -47.52600000     -35.75980000     -70.85940000
S      -43.41760000     -36.58320000     -71.04730000
S      -46.51160000     -37.03670000     -71.67580000
H      -48.60610000     -35.79960000     -70.81010000
