40
Properties=species:S:1:pos:R:3 #=T CELL(abcABC):=T 1.889726e+02=T 90.00000=T Traj:=T positionsangstrom=T Step:=T 0=T Bead:=T pbc="F F F"
C      -46.24320000     -30.23610000     -73.18840000
C      -46.21890000     -31.61770000     -73.17740000
C      -44.97010000     -32.21760000     -72.85700000
C      -43.83150000     -31.47430000     -72.46330000
C      -43.90000000     -30.08400000     -72.54480000
C      -45.10060000     -29.50000000     -72.93900000
H      -47.18760000     -29.82280000     -73.52230000
H      -44.90560000     -33.25810000     -72.94300000
H      -43.09820000     -29.48390000     -72.24790000
H      -45.18330000     -28.42490000     -72.96910000
C      -42.63180000     -32.31730000     -72.08520000
H      -41.63460000     -32.22010000     -72.58960000
H      -42.85220000     -33.39350000     -72.11340000
C      -47.46030000     -32.38920000     -73.55400000
H      -48.05370000     -31.83840000     -74.28990000
H      -47.22790000     -33.37160000     -73.92550000
S      -42.44100000     -31.77360000     -70.23140000
S      -48.66490000     -32.76820000     -72.16250000
C      -44.09520000     -31.85740000     -69.45730000
H      -44.15620000     -31.07110000     -68.76070000
H      -44.84690000     -31.77000000     -70.29750000
C      -47.71320000     -32.40910000     -70.62790000
H      -48.28570000     -31.59960000     -70.25560000
H      -46.80580000     -32.02810000     -71.08250000
C      -47.63730000     -33.61120000     -69.68410000
H      -47.19100000     -33.26940000     -68.74370000
H      -48.66700000     -33.90320000     -69.48850000
C      -44.38480000     -33.21060000     -68.59960000
H      -45.40110000     -33.09810000     -68.17070000
H      -43.73290000     -33.11040000     -67.75090000
C      -44.32550000     -34.44280000     -69.42260000
C      -43.12530000     -35.01970000     -69.81950000
C      -45.46260000     -34.98220000     -70.18200000
H      -42.17850000     -34.64880000     -69.30950000
C      -45.00260000     -36.01450000     -71.09330000
C      -46.82710000     -34.72590000     -70.30650000
C      -47.48500000     -35.60570000     -71.18610000
S      -43.30320000     -36.26380000     -70.96870000
S      -46.34960000     -36.74230000     -72.01720000
H      -48.51310000     -35.71790000     -71.37610000
