40
Properties=species:S:1:pos:R:3 #=T CELL(abcABC):=T 1.889726e+02=T 90.00000=T Traj:=T positionsangstrom=T Step:=T 0=T Bead:=T pbc="F F F"
C      -46.11410000     -30.11930000     -73.35980000
C      -46.32810000     -31.44800000     -73.00300000
C      -45.25380000     -32.12310000     -72.38450000
C      -44.05380000     -31.43480000     -72.10310000
C      -43.87030000     -30.10930000     -72.55930000
C      -44.95330000     -29.44170000     -73.10960000
H      -46.98940000     -29.60340000     -73.79360000
H      -45.35160000     -33.13980000     -72.01640000
H      -42.85240000     -29.73970000     -72.34850000
H      -44.85270000     -28.45150000     -73.46820000
C      -42.90320000     -32.04670000     -71.40850000
H      -41.96840000     -31.60070000     -71.72940000
H      -42.92120000     -33.18440000     -71.55740000
C      -47.56470000     -32.22860000     -73.38330000
H      -48.03940000     -31.80320000     -74.27320000
H      -47.08140000     -33.17610000     -73.65540000
S      -42.87680000     -31.63410000     -69.50510000
S      -48.89480000     -32.55900000     -72.12120000
C      -44.54260000     -32.25720000     -68.95130000
H      -44.88830000     -31.62450000     -68.15040000
H      -45.21480000     -32.14520000     -69.73820000
C      -47.85840000     -32.58260000     -70.49230000
H      -48.35820000     -32.09480000     -69.62150000
H      -46.91370000     -32.04810000     -70.69050000
C      -47.59620000     -33.97300000     -69.96460000
H      -47.20270000     -33.96970000     -68.98470000
H      -48.60260000     -34.40660000     -69.83180000
C      -44.52620000     -33.67220000     -68.48650000
H      -45.39490000     -33.85020000     -67.90900000
H      -43.64310000     -33.68630000     -67.81780000
C      -44.31840000     -34.68700000     -69.54990000
C      -43.07520000     -35.10920000     -69.82310000
C      -45.24640000     -35.12430000     -70.57410000
H      -42.20660000     -34.81870000     -69.27230000
C      -44.68280000     -35.98320000     -71.50890000
C      -46.69370000     -34.88540000     -70.77660000
C      -47.13810000     -35.67270000     -71.82130000
S      -42.98530000     -36.20780000     -71.20000000
S      -45.86470000     -36.60680000     -72.61600000
H      -48.17090000     -35.77420000     -72.13330000
