40
Properties=species:S:1:pos:R:3 #=T CELL(abcABC):=T 1.889726e+02=T 90.00000=T Traj:=T positionsangstrom=T Step:=T 0=T Bead:=T pbc="F F F"
C      -43.48820000     -30.46300000     -69.64240000
C      -44.87210000     -30.29910000     -69.76370000
C      -45.38050000     -30.17050000     -71.05800000
C      -44.58420000     -30.40300000     -72.23220000
C      -43.23930000     -30.66950000     -72.09450000
C      -42.75750000     -30.79870000     -70.75410000
H      -43.16650000     -30.67320000     -68.63620000
H      -46.47740000     -30.09510000     -71.13100000
H      -42.55670000     -30.95380000     -72.89100000
H      -41.67810000     -30.98710000     -70.65040000
C      -45.30950000     -30.12130000     -73.55350000
H      -44.63350000     -30.02650000     -74.45240000
H      -45.71750000     -29.12180000     -73.42490000
C      -45.82230000     -30.16050000     -68.58220000
H      -45.18430000     -30.21840000     -67.63920000
H      -46.32500000     -29.22070000     -68.62300000
S      -46.74210000     -31.29320000     -73.76980000
S      -47.11790000     -31.49310000     -68.71670000
C      -45.77680000     -32.85360000     -73.28260000
H      -45.04540000     -32.93430000     -74.08410000
H      -45.23740000     -32.65510000     -72.36110000
C      -46.23550000     -33.08390000     -68.58520000
H      -46.99960000     -33.82440000     -68.21190000
H      -45.51590000     -33.10910000     -67.74220000
C      -45.62050000     -33.57830000     -69.93220000
H      -46.22740000     -33.23600000     -70.72990000
H      -44.68390000     -32.99610000     -69.95420000
C      -46.77500000     -34.02520000     -73.17770000
H      -47.25080000     -34.13410000     -74.16500000
H      -47.52890000     -33.79190000     -72.43560000
C      -46.01750000     -35.27820000     -72.80860000
C      -45.74830000     -36.16960000     -73.78330000
C      -45.45410000     -35.64780000     -71.50410000
H      -46.08770000     -36.03180000     -74.85980000
C      -44.74390000     -36.88700000     -71.61030000
C      -45.19400000     -34.97390000     -70.26030000
C      -44.58000000     -35.81940000     -69.32570000
S      -44.82010000     -37.63410000     -73.22640000
S      -44.05270000     -37.31940000     -70.11330000
H      -44.18710000     -35.63840000     -68.38570000
