40
Properties=species:S:1:pos:R:3 #=T CELL(abcABC):=T 1.889726e+02=T 90.00000=T Traj:=T positionsangstrom=T Step:=T 0=T Bead:=T pbc="F F F"
C      -46.18920000     -30.28730000     -73.45550000
C      -46.28120000     -31.59700000     -73.03190000
C      -45.19920000     -32.16970000     -72.28430000
C      -44.07680000     -31.35940000     -71.98010000
C      -44.07710000     -30.01790000     -72.34460000
C      -45.10650000     -29.46040000     -73.14830000
H      -47.01770000     -29.93120000     -74.09530000
H      -45.14900000     -33.22240000     -71.93570000
H      -43.20120000     -29.46120000     -72.10120000
H      -45.10540000     -28.36490000     -73.34450000
C      -42.92120000     -31.93690000     -71.20840000
H      -41.91420000     -31.70440000     -71.57030000
H      -42.95050000     -33.00760000     -71.10360000
C      -47.47390000     -32.43300000     -73.34920000
H      -47.95480000     -31.98390000     -74.22960000
H      -47.11130000     -33.45280000     -73.59670000
S      -42.85190000     -31.42660000     -69.46110000
S      -48.79950000     -32.44190000     -71.91550000
C      -44.47210000     -32.08250000     -68.81940000
H      -44.69770000     -31.57960000     -67.86080000
H      -45.20680000     -31.63280000     -69.55640000
C      -47.90660000     -32.73720000     -70.31860000
H      -48.50130000     -32.26950000     -69.62750000
H      -47.01510000     -32.23280000     -70.49750000
C      -47.72020000     -34.22080000     -70.02710000
H      -47.66970000     -34.37730000     -68.88560000
H      -48.71550000     -34.62920000     -70.24800000
C      -44.54670000     -33.60550000     -68.60940000
H      -45.51820000     -33.85340000     -68.15900000
H      -43.79990000     -33.87110000     -67.80660000
C      -44.26690000     -34.64710000     -69.73070000
C      -43.02840000     -35.12660000     -70.02420000
C      -45.28470000     -35.14760000     -70.62380000
H      -42.20800000     -35.01100000     -69.29230000
C      -44.69100000     -35.99610000     -71.51640000
C      -46.70780000     -34.99810000     -70.83280000
C      -47.09910000     -35.74880000     -71.93980000
S      -43.00610000     -36.19020000     -71.38130000
S      -45.80300000     -36.65130000     -72.71530000
H      -48.11890000     -35.97570000     -72.28000000
