40
Properties=species:S:1:pos:R:3 #=T CELL(abcABC):=T 1.889726e+02=T 90.00000=T Traj:=T positionsangstrom=T Step:=T 0=T Bead:=T pbc="F F F"
C      -46.41430000     -30.31900000     -73.33540000
C      -46.25320000     -31.63800000     -72.95830000
C      -45.12570000     -32.08460000     -72.25390000
C      -44.07070000     -31.21430000     -71.92350000
C      -44.20690000     -29.90300000     -72.40110000
C      -45.34400000     -29.41830000     -73.08010000
H      -47.28240000     -29.94170000     -73.79210000
H      -45.00900000     -33.15080000     -72.06240000
H      -43.46540000     -29.19230000     -72.13640000
H      -45.39380000     -28.35440000     -73.30260000
C      -42.78980000     -31.72080000     -71.26490000
H      -41.93150000     -31.15640000     -71.75080000
H      -42.50370000     -32.75100000     -71.47000000
C      -47.34500000     -32.60570000     -73.21120000
H      -47.92530000     -32.33160000     -74.09380000
H      -47.11110000     -33.68350000     -73.32910000
S      -42.85680000     -31.42930000     -69.41350000
S      -48.67850000     -32.38250000     -71.89020000
C      -44.42880000     -32.13660000     -68.89110000
H      -44.59170000     -31.69430000     -67.91470000
H      -45.21160000     -31.82300000     -69.57860000
C      -47.84510000     -32.87270000     -70.41690000
H      -48.30630000     -32.26400000     -69.54510000
H      -46.79510000     -32.37940000     -70.44000000
C      -47.71930000     -34.34650000     -69.94930000
H      -47.39940000     -34.40090000     -68.92860000
H      -48.71120000     -34.76610000     -70.06100000
C      -44.49170000     -33.65650000     -68.57340000
H      -45.47350000     -33.79680000     -68.09470000
H      -43.75180000     -33.82160000     -67.82100000
C      -44.28830000     -34.59090000     -69.77790000
C      -43.03080000     -35.03270000     -70.03950000
C      -45.31780000     -35.11450000     -70.71090000
H      -42.09670000     -34.60580000     -69.57400000
C      -44.71470000     -35.98240000     -71.60700000
C      -46.75710000     -35.17300000     -70.84220000
C      -47.17170000     -35.96510000     -71.89270000
S      -43.02460000     -36.14790000     -71.41690000
S      -45.82270000     -36.68870000     -72.79600000
H      -48.20410000     -35.99600000     -72.29080000
