40
Properties=species:S:1:pos:R:3 #=T CELL(abcABC):=T 1.889726e+02=T 90.00000=T Traj:=T positionsangstrom=T Step:=T 0=T Bead:=T pbc="F F F"
C      -46.51590000     -30.15550000     -73.09660000
C      -46.22050000     -31.50700000     -72.85690000
C      -45.01380000     -31.90540000     -72.30410000
C      -44.03730000     -30.99610000     -71.88940000
C      -44.35310000     -29.64350000     -72.18710000
C      -45.52550000     -29.25660000     -72.79890000
H      -47.50710000     -29.79570000     -73.43940000
H      -44.91780000     -32.99270000     -72.18510000
H      -43.64560000     -28.83850000     -71.80980000
H      -45.77160000     -28.22400000     -72.92150000
C      -42.69720000     -31.41540000     -71.35150000
H      -41.90080000     -30.76610000     -71.53640000
H      -42.46650000     -32.41480000     -71.74020000
C      -47.20180000     -32.60080000     -73.22550000
H      -47.52210000     -32.43610000     -74.27620000
H      -46.64830000     -33.49180000     -73.27530000
S      -42.77520000     -31.60650000     -69.51210000
S      -48.70340000     -32.73290000     -72.13820000
C      -44.49020000     -32.16880000     -68.99260000
H      -44.74790000     -31.42220000     -68.20470000
H      -45.19790000     -32.00060000     -69.80920000
C      -48.04260000     -32.91750000     -70.35310000
H      -48.78990000     -32.36620000     -69.70480000
H      -47.08710000     -32.37890000     -70.28960000
C      -47.75730000     -34.40010000     -69.94630000
H      -47.33410000     -34.41350000     -68.93030000
H      -48.68730000     -34.96820000     -69.92760000
C      -44.51700000     -33.64770000     -68.58850000
H      -45.52170000     -33.84540000     -68.31260000
H      -43.93570000     -33.88770000     -67.66180000
C      -44.21310000     -34.58620000     -69.77120000
C      -42.96340000     -34.99070000     -70.10990000
C      -45.26890000     -35.17340000     -70.55790000
H      -42.08230000     -34.94430000     -69.52320000
C      -44.72370000     -36.00700000     -71.56310000
C      -46.70430000     -35.14720000     -70.83080000
C      -47.17470000     -35.93520000     -71.83650000
S      -42.99480000     -36.14220000     -71.50580000
S      -45.84390000     -36.69030000     -72.70300000
H      -48.21750000     -35.99980000     -72.09870000
