40
Properties=species:S:1:pos:R:3 #=T CELL(abcABC):=T 1.889726e+02=T 90.00000=T Traj:=T positionsangstrom=T Step:=T 0=T Bead:=T pbc="F F F"
C      -46.73910000     -30.22460000     -72.56860000
C      -46.44360000     -31.58250000     -72.72460000
C      -45.21140000     -32.07900000     -72.32410000
C      -44.24040000     -31.19210000     -71.77520000
C      -44.56050000     -29.84330000     -71.52680000
C      -45.81640000     -29.39990000     -71.95630000
H      -47.75100000     -29.86400000     -72.88040000
H      -45.01930000     -33.10440000     -72.46850000
H      -43.93460000     -29.06070000     -71.04590000
H      -46.12290000     -28.38970000     -71.70110000
C      -42.90910000     -31.75810000     -71.31460000
H      -42.06180000     -31.13440000     -71.62260000
H      -42.83530000     -32.74020000     -71.78130000
C      -47.55390000     -32.36550000     -73.37350000
H      -48.04970000     -31.71730000     -74.14310000
H      -47.21280000     -33.27010000     -73.88710000
S      -42.67610000     -31.75370000     -69.42890000
S      -48.86950000     -32.80870000     -72.21110000
C      -44.36710000     -32.17540000     -68.87220000
H      -44.46680000     -31.65970000     -67.95530000
H      -45.12060000     -31.73860000     -69.54640000
C      -48.09310000     -33.01030000     -70.59430000
H      -48.90110000     -32.80330000     -69.86220000
H      -47.36120000     -32.15350000     -70.41260000
C      -47.47530000     -34.32270000     -70.11430000
H      -46.88310000     -34.06250000     -69.26480000
H      -48.29930000     -34.99440000     -69.75930000
C      -44.55590000     -33.70620000     -68.62060000
H      -45.54540000     -33.77020000     -68.14910000
H      -43.81270000     -33.88680000     -67.87660000
C      -44.33370000     -34.67460000     -69.72310000
C      -43.03810000     -35.13250000     -69.87720000
C      -45.16590000     -35.12010000     -70.84070000
H      -42.20840000     -35.00770000     -69.16420000
C      -44.49580000     -35.88710000     -71.80090000
C      -46.62350000     -35.09050000     -71.08690000
C      -46.95600000     -35.79840000     -72.28230000
S      -42.77380000     -35.86390000     -71.50060000
S      -45.51580000     -36.40290000     -73.09420000
H      -47.92460000     -35.90400000     -72.70670000
