40
Properties=species:S:1:pos:R:3 #=T CELL(abcABC):=T 1.889726e+02=T 90.00000=T Traj:=T positionsangstrom=T Step:=T 0=T Bead:=T pbc="F F F"
C      -43.61860000     -30.60740000     -69.65750000
C      -44.93850000     -30.16530000     -69.71540000
C      -45.50080000     -29.93800000     -70.97550000
C      -44.76690000     -30.19940000     -72.17680000
C      -43.43670000     -30.62340000     -72.06590000
C      -42.83910000     -30.71510000     -70.81490000
H      -43.08520000     -30.64700000     -68.70280000
H      -46.52890000     -29.51550000     -70.93800000
H      -42.85020000     -30.67130000     -72.96790000
H      -41.80680000     -31.06600000     -70.67500000
C      -45.36800000     -30.09350000     -73.55900000
H      -44.56630000     -30.11560000     -74.27490000
H      -45.93320000     -29.17780000     -73.68610000
C      -45.80250000     -30.27290000     -68.42240000
H      -45.12510000     -30.57000000     -67.58250000
H      -46.42830000     -29.39990000     -68.15800000
S      -46.61330000     -31.33230000     -74.01120000
S      -47.05560000     -31.61600000     -68.48940000
C      -45.75970000     -32.88990000     -73.55350000
H      -45.14110000     -33.25430000     -74.39730000
H      -45.01550000     -32.62380000     -72.81040000
C      -46.10300000     -33.25170000     -68.66180000
H      -46.96750000     -33.94050000     -68.37340000
H      -45.36240000     -33.28650000     -67.89730000
C      -45.60270000     -33.49800000     -70.06280000
H      -46.40310000     -33.24580000     -70.79010000
H      -44.75970000     -32.79310000     -70.34760000
C      -46.77550000     -34.04950000     -73.16760000
H      -47.40380000     -34.26270000     -74.01430000
H      -47.44840000     -33.76370000     -72.35090000
C      -45.96550000     -35.32330000     -72.82180000
C      -45.76010000     -36.33460000     -73.71480000
C      -45.30540000     -35.57010000     -71.56040000
H      -46.30850000     -36.36800000     -74.71790000
C      -44.70110000     -36.82900000     -71.60210000
C      -45.07980000     -34.85260000     -70.31370000
C      -44.51490000     -35.71770000     -69.36090000
S      -44.87810000     -37.68680000     -73.12720000
S      -44.06960000     -37.26070000     -70.08180000
H      -44.20610000     -35.59800000     -68.35690000
