40
Properties=species:S:1:pos:R:3 #=T CELL(abcABC):=T 1.889726e+02=T 90.00000=T Traj:=T positionsangstrom=T Step:=T 0=T Bead:=T pbc="F F F"
C      -48.91970000     -34.14790000     -69.73500000
C      -48.61760000     -34.07010000     -71.08700000
C      -48.51420000     -32.81130000     -71.71520000
C      -48.48170000     -31.64980000     -70.93910000
C      -48.74040000     -31.76880000     -69.54520000
C      -48.94380000     -32.99580000     -68.96750000
H      -49.18600000     -35.06040000     -69.19910000
H      -48.07870000     -32.76420000     -72.69210000
H      -48.67700000     -30.79460000     -68.97850000
H      -49.30200000     -33.02480000     -67.93960000
C      -47.98480000     -30.40030000     -71.56360000
H      -48.73530000     -29.62700000     -71.35270000
H      -47.83610000     -30.58160000     -72.65740000
C      -48.46740000     -35.38530000     -71.76700000
H      -47.95740000     -36.18200000     -71.23420000
H      -49.45190000     -35.74290000     -71.92940000
S      -46.44790000     -29.72720000     -70.83030000
S      -47.61610000     -35.28800000     -73.45400000
C      -45.13750000     -30.96310000     -71.23460000
H      -45.24390000     -31.26860000     -72.22250000
H      -44.25460000     -30.33990000     -71.21180000
C      -45.93700000     -34.68150000     -72.87610000
H      -46.05510000     -33.69900000     -72.42030000
H      -45.44130000     -34.54410000     -73.83350000
C      -45.16980000     -35.55310000     -71.89160000
H      -45.60160000     -35.49220000     -70.91470000
H      -45.30450000     -36.58560000     -72.24770000
C      -44.97660000     -32.20580000     -70.40730000
H      -45.77560000     -32.96630000     -70.65130000
H      -45.08550000     -31.81110000     -69.31720000
C      -43.55370000     -32.78840000     -70.66500000
C      -42.43200000     -32.10560000     -70.17590000
C      -43.09900000     -34.03350000     -71.32990000
H      -42.60010000     -31.15920000     -69.70130000
C      -41.70110000     -34.12390000     -71.35460000
C      -43.73440000     -35.23520000     -71.80770000
C      -42.82930000     -36.24990000     -72.05560000
S      -40.93580000     -32.81040000     -70.57020000
S      -41.14670000     -35.65210000     -72.01260000
H      -43.06910000     -37.21760000     -72.51080000
