40
Properties=species:S:1:pos:R:3 #=T CELL(abcABC):=T 1.889726e+02=T 90.00000=T Traj:=T positionsangstrom=T Step:=T 0=T Bead:=T pbc="F F F"
C      -48.80250000     -34.15730000     -69.59960000
C      -48.42770000     -34.10920000     -70.96130000
C      -48.21140000     -32.88290000     -71.57290000
C      -48.34290000     -31.70970000     -70.86650000
C      -48.75290000     -31.75700000     -69.47380000
C      -49.02200000     -32.98480000     -68.85470000
H      -48.85520000     -35.08230000     -69.15720000
H      -48.17540000     -32.74890000     -72.65020000
H      -48.83460000     -30.79460000     -68.88560000
H      -49.27240000     -33.10600000     -67.77980000
C      -47.98010000     -30.41740000     -71.57400000
H      -48.78720000     -29.64410000     -71.36730000
H      -47.80060000     -30.56200000     -72.60110000
C      -48.39870000     -35.40060000     -71.85600000
H      -47.87520000     -36.20180000     -71.30000000
H      -49.44230000     -35.85480000     -71.93590000
S      -46.41260000     -29.72380000     -70.89790000
S      -47.60060000     -35.25590000     -73.52240000
C      -45.11010000     -30.95560000     -71.38450000
H      -45.29050000     -31.24140000     -72.45750000
H      -44.19900000     -30.35340000     -71.40820000
C      -45.84920000     -34.76930000     -73.14060000
H      -45.66410000     -33.67830000     -73.28870000
H      -45.35450000     -35.13880000     -74.08360000
C      -45.24780000     -35.38870000     -71.90920000
H      -45.69130000     -34.91850000     -70.99480000
H      -45.52320000     -36.45520000     -71.76940000
C      -44.99670000     -32.24320000     -70.51010000
H      -45.66720000     -32.90890000     -70.94820000
H      -45.37410000     -32.01850000     -69.55240000
C      -43.62800000     -32.81650000     -70.55740000
C      -42.55490000     -31.98950000     -70.23570000
C      -43.20200000     -34.09870000     -71.10240000
H      -42.63300000     -30.99310000     -69.86570000
C      -41.84330000     -34.24190000     -71.09500000
C      -43.76200000     -35.18680000     -71.79600000
C      -42.86540000     -36.02820000     -72.41260000
S      -40.99910000     -32.86350000     -70.53880000
S      -41.22940000     -35.65460000     -71.92520000
H      -43.07660000     -36.90150000     -72.99430000
