40
Properties=species:S:1:pos:R:3 #=T CELL(abcABC):=T 1.889726e+02=T 90.00000=T Traj:=T positionsangstrom=T Step:=T 0=T Bead:=T pbc="F F F"
C      -48.77650000     -34.31230000     -69.74780000
C      -48.54590000     -34.16070000     -71.15100000
C      -48.35830000     -32.86640000     -71.63770000
C      -48.25230000     -31.71560000     -70.82770000
C      -48.51770000     -31.85700000     -69.41850000
C      -48.69590000     -33.18490000     -68.86800000
H      -48.93640000     -35.37270000     -69.44720000
H      -48.08040000     -32.83250000     -72.69690000
H      -48.33240000     -31.05060000     -68.78440000
H      -48.82370000     -33.28310000     -67.79860000
C      -48.00740000     -30.36800000     -71.46330000
H      -48.76540000     -29.67900000     -71.15320000
H      -47.98540000     -30.58220000     -72.58430000
C      -48.63650000     -35.40700000     -72.03010000
H      -48.48660000     -36.31540000     -71.39150000
H      -49.65190000     -35.58560000     -72.38360000
S      -46.42860000     -29.68050000     -70.99090000
S      -47.60740000     -35.45050000     -73.60090000
C      -45.16120000     -30.92520000     -71.57770000
H      -45.49290000     -31.50900000     -72.48470000
H      -44.32090000     -30.36250000     -71.89410000
C      -46.00220000     -34.79470000     -73.12340000
H      -46.07380000     -33.69310000     -73.01390000
H      -45.39880000     -34.92160000     -74.01960000
C      -45.27150000     -35.31120000     -71.87490000
H      -45.66470000     -34.76850000     -70.98460000
H      -45.46880000     -36.35800000     -71.59540000
C      -44.94210000     -32.10010000     -70.48480000
H      -45.69570000     -32.88420000     -70.70180000
H      -45.19050000     -31.65090000     -69.57230000
C      -43.58130000     -32.71740000     -70.50600000
C      -42.50050000     -31.93300000     -70.13900000
C      -43.13880000     -33.89960000     -71.27200000
H      -42.43140000     -30.97870000     -69.62000000
C      -41.76560000     -34.09910000     -71.21880000
C      -43.77080000     -35.08000000     -71.88260000
C      -42.89750000     -36.08870000     -72.26650000
S      -40.99540000     -32.75440000     -70.34310000
S      -41.25850000     -35.72440000     -71.73440000
H      -43.27530000     -36.98640000     -72.75570000
