40
Properties=species:S:1:pos:R:3 #=T CELL(abcABC):=T 1.889726e+02=T 90.00000=T Traj:=T positionsangstrom=T Step:=T 0=T Bead:=T pbc="F F F"
C      -48.36320000     -34.43370000     -69.73820000
C      -48.55980000     -34.28960000     -71.10860000
C      -48.54080000     -32.98090000     -71.70840000
C      -48.42370000     -31.82990000     -70.90390000
C      -48.24340000     -32.01990000     -69.50840000
C      -48.25880000     -33.30370000     -68.92250000
H      -48.39350000     -35.37220000     -69.22740000
H      -48.52470000     -32.76440000     -72.78950000
H      -48.16460000     -31.13330000     -68.83960000
H      -48.05100000     -33.41350000     -67.81670000
C      -48.22240000     -30.45660000     -71.51870000
H      -48.93300000     -29.70270000     -71.07400000
H      -48.47360000     -30.50860000     -72.60150000
C      -48.70640000     -35.50800000     -71.99440000
H      -48.52320000     -36.42610000     -71.49260000
H      -49.67150000     -35.49030000     -72.51460000
S      -46.55340000     -29.77730000     -71.10060000
S      -47.49580000     -35.33780000     -73.47470000
C      -45.35560000     -31.10740000     -71.60000000
H      -45.84660000     -31.74270000     -72.36600000
H      -44.40610000     -30.67640000     -71.98330000
C      -45.91020000     -34.63100000     -72.83420000
H      -45.93610000     -33.59630000     -72.62020000
H      -45.16080000     -34.75620000     -73.62780000
C      -45.39850000     -35.29290000     -71.53360000
H      -45.81880000     -34.85920000     -70.60730000
H      -45.60720000     -36.36430000     -71.58250000
C      -44.89360000     -31.91510000     -70.41710000
H      -45.67220000     -32.65410000     -70.06820000
H      -44.92210000     -31.16670000     -69.50510000
C      -43.55100000     -32.53560000     -70.58810000
C      -42.39010000     -31.87210000     -70.34450000
C      -43.22290000     -33.83570000     -71.21870000
H      -42.22920000     -30.89500000     -69.87340000
C      -41.82930000     -34.04010000     -71.23350000
C      -43.87810000     -35.10950000     -71.57160000
C      -43.04420000     -36.14080000     -71.89940000
S      -40.92810000     -32.69640000     -70.65950000
S      -41.33700000     -35.62280000     -71.81790000
H      -43.32310000     -37.13560000     -72.17930000
