40
Properties=species:S:1:pos:R:3 #=T CELL(abcABC):=T 1.889726e+02=T 90.00000=T Traj:=T positionsangstrom=T Step:=T 0=T Bead:=T pbc="F F F"
C      -48.37150000     -34.58810000     -69.87270000
C      -48.52150000     -34.37170000     -71.20600000
C      -48.45530000     -33.05210000     -71.67080000
C      -48.25500000     -31.97780000     -70.77040000
C      -48.05620000     -32.27250000     -69.37530000
C      -48.01410000     -33.58730000     -68.97810000
H      -48.28280000     -35.62110000     -69.49380000
H      -48.53080000     -32.82680000     -72.73070000
H      -47.88100000     -31.55550000     -68.62550000
H      -47.72970000     -33.83020000     -67.93040000
C      -48.30410000     -30.53410000     -71.19980000
H      -48.91500000     -29.88060000     -70.49490000
H      -48.72040000     -30.32520000     -72.18540000
C      -48.69230000     -35.59030000     -72.06910000
H      -48.53580000     -36.48590000     -71.41330000
H      -49.73600000     -35.76500000     -72.48620000
S      -46.63100000     -29.61630000     -71.13480000
S      -47.50540000     -35.58030000     -73.46190000
C      -45.38980000     -30.75630000     -71.73170000
H      -45.70910000     -31.12490000     -72.68000000
H      -44.47230000     -30.15020000     -71.82960000
C      -45.84840000     -34.84500000     -73.00430000
H      -45.91500000     -33.76700000     -73.20520000
H      -45.21280000     -35.20640000     -73.87360000
C      -45.38620000     -35.23680000     -71.61490000
H      -45.92680000     -34.55920000     -70.98270000
H      -45.58910000     -36.33010000     -71.39130000
C      -45.04750000     -31.81310000     -70.61970000
H      -45.85170000     -32.58400000     -70.70870000
H      -44.96200000     -31.31950000     -69.60010000
C      -43.59400000     -32.40520000     -70.91350000
C      -42.43230000     -31.64900000     -70.82830000
C      -43.26950000     -33.76970000     -71.20750000
H      -42.44850000     -30.65930000     -70.39880000
C      -41.87300000     -33.96590000     -71.13510000
C      -43.89100000     -35.06350000     -71.38760000
C      -43.01950000     -36.13690000     -71.39080000
S      -40.92060000     -32.49910000     -71.00010000
S      -41.39440000     -35.60510000     -71.30950000
H      -43.29210000     -37.18600000     -71.43750000
