40
Properties=species:S:1:pos:R:3 #=T CELL(abcABC):=T 1.889726e+02=T 90.00000=T Traj:=T positionsangstrom=T Step:=T 0=T Bead:=T pbc="F F F"
C      -48.32380000     -34.61160000     -69.69090000
C      -48.43650000     -34.43790000     -71.09050000
C      -48.32220000     -33.16480000     -71.57120000
C      -48.24900000     -32.03530000     -70.67840000
C      -48.10400000     -32.24770000     -69.31750000
C      -48.11800000     -33.54320000     -68.81560000
H      -48.54670000     -35.60160000     -69.30810000
H      -48.46730000     -33.05560000     -72.66590000
H      -47.98890000     -31.53020000     -68.53910000
H      -48.01750000     -33.67240000     -67.74310000
C      -48.30650000     -30.66550000     -71.25760000
H      -49.04620000     -30.10680000     -70.73820000
H      -48.69540000     -30.81950000     -72.27840000
C      -48.72420000     -35.53810000     -72.16690000
H      -48.77980000     -36.59020000     -71.81340000
H      -49.56040000     -35.25670000     -72.82490000
S      -46.79050000     -29.64500000     -71.11780000
S      -47.42500000     -35.66380000     -73.52560000
C      -45.48790000     -30.65290000     -71.87300000
H      -45.79630000     -31.11720000     -72.86940000
H      -44.61380000     -30.03290000     -72.07980000
C      -45.76530000     -34.94370000     -72.82080000
H      -45.57780000     -33.90360000     -72.92810000
H      -45.03060000     -35.38080000     -73.51620000
C      -45.33960000     -35.32280000     -71.40100000
H      -45.89190000     -34.79320000     -70.66720000
H      -45.55050000     -36.39190000     -71.30340000
C      -45.08910000     -31.83980000     -70.92880000
H      -45.75300000     -32.69730000     -71.01490000
H      -45.25200000     -31.54280000     -69.92820000
C      -43.61980000     -32.36010000     -71.17910000
C      -42.49120000     -31.55350000     -71.11860000
C      -43.25460000     -33.75120000     -71.20590000
H      -42.52060000     -30.47810000     -71.09600000
C      -41.84270000     -33.89910000     -71.20420000
C      -43.87860000     -35.04230000     -71.26490000
C      -43.01160000     -36.10010000     -71.32350000
S      -40.90000000     -32.43600000     -71.11180000
S      -41.33660000     -35.49220000     -71.14450000
H      -43.27420000     -37.11270000     -71.16310000
