40
Properties=species:S:1:pos:R:3 #=T CELL(abcABC):=T 1.889726e+02=T 90.00000=T Traj:=T positionsangstrom=T Step:=T 0=T Bead:=T pbc="F F F"
C      -48.32450000     -34.63620000     -69.68880000
C      -48.50030000     -34.42920000     -71.06760000
C      -48.57970000     -33.09260000     -71.54540000
C      -48.34540000     -32.04210000     -70.66430000
C      -48.32310000     -32.27150000     -69.25000000
C      -48.25990000     -33.58000000     -68.79830000
H      -48.07460000     -35.58460000     -69.28610000
H      -48.74940000     -33.03210000     -72.62570000
H      -48.20810000     -31.44230000     -68.50550000
H      -48.13300000     -33.73850000     -67.77230000
C      -48.35480000     -30.69190000     -71.19360000
H      -48.98290000     -30.04970000     -70.63310000
H      -48.68860000     -30.79570000     -72.27600000
C      -48.49510000     -35.71560000     -71.95570000
H      -48.39440000     -36.53010000     -71.24950000
H      -49.48440000     -35.79450000     -72.29850000
S      -46.70590000     -29.61500000     -71.11240000
S      -47.36360000     -35.72000000     -73.39500000
C      -45.46190000     -30.62830000     -71.95770000
H      -45.81130000     -30.92430000     -72.96660000
H      -44.68900000     -29.90040000     -72.14390000
C      -45.84200000     -34.88210000     -72.78280000
H      -46.09070000     -33.80380000     -72.67580000
H      -45.09060000     -35.04340000     -73.53530000
C      -45.25000000     -35.36110000     -71.42790000
H      -45.76940000     -34.79620000     -70.57780000
H      -45.49080000     -36.37300000     -71.15350000
C      -45.09680000     -31.89340000     -71.16500000
H      -45.89600000     -32.62980000     -71.33000000
H      -45.15690000     -31.66400000     -70.02890000
C      -43.66920000     -32.40110000     -71.22200000
C      -42.63230000     -31.56630000     -71.45780000
C      -43.17390000     -33.80350000     -71.12320000
H      -42.79580000     -30.51920000     -71.74560000
C      -41.76300000     -33.85200000     -71.13820000
C      -43.81060000     -35.10360000     -71.16160000
C      -42.88400000     -36.08020000     -71.15080000
S      -40.97060000     -32.25830000     -71.29550000
S      -41.25730000     -35.53500000     -71.16630000
H      -42.99040000     -37.08970000     -71.33990000
