40
Properties=species:S:1:pos:R:3 #=T CELL(abcABC):=T 1.889726e+02=T 90.00000=T Traj:=T positionsangstrom=T Step:=T 0=T Bead:=T pbc="F F F"
C      -47.28730000     -30.25350000     -71.72630000
C      -46.65770000     -31.40480000     -72.23090000
C      -45.32640000     -31.68230000     -71.98800000
C      -44.67080000     -30.79070000     -71.10590000
C      -45.24980000     -29.73610000     -70.45970000
C      -46.58010000     -29.39320000     -70.87080000
H      -48.38830000     -30.15630000     -71.94820000
H      -44.82640000     -32.46000000     -72.56610000
H      -44.63850000     -29.14310000     -69.70210000
H      -47.09980000     -28.56260000     -70.33330000
C      -43.24590000     -31.18380000     -70.63780000
H      -42.61610000     -30.30810000     -70.88790000
H      -42.85830000     -32.09590000     -71.16820000
C      -47.44760000     -32.34090000     -73.18940000
H      -47.92760000     -31.71310000     -73.94320000
H      -46.82930000     -33.09120000     -73.60950000
S      -43.10440000     -31.48360000     -68.89090000
S      -48.81350000     -33.10000000     -72.15700000
C      -44.46450000     -32.77020000     -68.58570000
H      -44.76120000     -32.69830000     -67.52370000
H      -45.30570000     -32.58060000     -69.22860000
C      -47.94330000     -33.56600000     -70.62080000
H      -48.81490000     -33.44490000     -69.92570000
H      -47.15370000     -32.92090000     -70.42300000
C      -47.48920000     -35.00340000     -70.50360000
H      -47.23590000     -35.18180000     -69.46280000
H      -48.28860000     -35.61450000     -70.68640000
C      -44.17480000     -34.24890000     -68.83490000
H      -44.96050000     -34.75310000     -68.34280000
H      -43.36360000     -34.73850000     -68.28080000
C      -43.95630000     -34.79060000     -70.24080000
C      -42.65450000     -34.91360000     -70.71010000
C      -44.90720000     -35.21750000     -71.23480000
H      -41.86920000     -34.52670000     -70.01760000
C      -44.18880000     -35.57730000     -72.39850000
C      -46.33550000     -35.39020000     -71.40940000
C      -46.62400000     -35.96840000     -72.67010000
S      -42.46250000     -35.50320000     -72.37670000
S      -45.18700000     -36.25880000     -73.64040000
H      -47.64880000     -36.30570000     -73.10580000
