40
Properties=species:S:1:pos:R:3 #=T CELL(abcABC):=T 1.889726e+02=T 90.00000=T Traj:=T positionsangstrom=T Step:=T 0=T Bead:=T pbc="F F F"
C      -47.33740000     -30.25410000     -71.68520000
C      -46.71310000     -31.37880000     -72.25330000
C      -45.36150000     -31.58230000     -72.03980000
C      -44.64720000     -30.78010000     -71.11690000
C      -45.19620000     -29.55760000     -70.60530000
C      -46.55010000     -29.29400000     -70.88480000
H      -48.40720000     -30.14500000     -71.95240000
H      -44.98390000     -32.60910000     -72.36870000
H      -44.57680000     -28.87560000     -70.00720000
H      -47.07570000     -28.36710000     -70.63460000
C      -43.22580000     -31.10660000     -70.80990000
H      -42.70760000     -30.10750000     -70.79510000
H      -42.77480000     -31.85700000     -71.46940000
C      -47.50170000     -32.37010000     -73.00070000
H      -47.92140000     -31.82480000     -73.89080000
H      -46.80200000     -33.19230000     -73.32340000
S      -43.07980000     -31.70200000     -68.93370000
S      -48.84410000     -33.17400000     -72.13840000
C      -44.63030000     -32.70020000     -68.74690000
H      -44.96010000     -32.48370000     -67.69430000
H      -45.47760000     -32.40470000     -69.36260000
C      -48.08170000     -33.65670000     -70.51760000
H      -48.90960000     -33.62750000     -69.80960000
H      -47.40850000     -32.88120000     -70.07180000
C      -47.32660000     -35.00520000     -70.45240000
H      -46.80790000     -34.93750000     -69.47230000
H      -48.08170000     -35.86520000     -70.40140000
C      -44.38370000     -34.22870000     -68.88880000
H      -45.28120000     -34.71060000     -68.35900000
H      -43.60800000     -34.51360000     -68.11470000
C      -43.99630000     -34.69240000     -70.25810000
C      -42.66080000     -34.77480000     -70.63870000
C      -44.82410000     -35.17820000     -71.32860000
H      -41.73290000     -34.30180000     -70.24870000
C      -44.07970000     -35.69510000     -72.39630000
C      -46.25510000     -35.37410000     -71.45200000
C      -46.59550000     -35.89830000     -72.68900000
S      -42.41140000     -35.40660000     -72.28040000
S      -45.15390000     -36.36970000     -73.58380000
H      -47.61550000     -36.22440000     -73.13510000
