40
Properties=species:S:1:pos:R:3 #=T CELL(abcABC):=T 1.889726e+02=T 90.00000=T Traj:=T positionsangstrom=T Step:=T 0=T Bead:=T pbc="F F F"
C      -48.63440000     -34.42070000     -69.19790000
C      -48.41600000     -34.61800000     -70.55860000
C      -48.41180000     -33.54140000     -71.44590000
C      -48.55470000     -32.23760000     -70.95260000
C      -48.66970000     -32.03230000     -69.52220000
C      -48.68070000     -33.13350000     -68.65580000
H      -48.76680000     -35.18010000     -68.41280000
H      -48.24890000     -33.69280000     -72.52450000
H      -48.68920000     -30.98920000     -69.15160000
H      -48.67760000     -33.06780000     -67.52870000
C      -48.50580000     -31.11710000     -71.85830000
H      -49.40380000     -30.56210000     -71.63550000
H      -48.41380000     -31.35580000     -72.91310000
C      -48.11640000     -36.02250000     -70.93740000
H      -47.52610000     -36.43380000     -70.11030000
H      -49.06280000     -36.57740000     -70.97550000
S      -47.18180000     -29.90040000     -71.45820000
S      -47.46510000     -36.38270000     -72.57850000
C      -45.57200000     -30.76510000     -71.99840000
H      -45.68750000     -31.19420000     -73.01820000
H      -44.79970000     -29.99520000     -72.01330000
C      -45.79920000     -35.35760000     -72.70280000
H      -46.05170000     -34.31070000     -72.62860000
H      -45.41520000     -35.45400000     -73.71430000
C      -44.89500000     -35.50960000     -71.41400000
H      -45.32760000     -35.01490000     -70.52650000
H      -44.79060000     -36.60030000     -71.18660000
C      -45.10830000     -31.94730000     -71.08250000
H      -45.72500000     -32.73850000     -71.31790000
H      -45.41480000     -31.80770000     -70.02840000
C      -43.65710000     -32.24450000     -71.11150000
C      -42.70110000     -31.23070000     -71.16480000
C      -43.04220000     -33.57210000     -71.38690000
H      -42.81860000     -30.17880000     -70.88900000
C      -41.66830000     -33.42420000     -71.42620000
C      -43.47280000     -34.97870000     -71.59730000
C      -42.37680000     -35.79060000     -71.79590000
S      -41.02590000     -31.80800000     -71.13430000
S      -40.84140000     -34.99710000     -71.82960000
H      -42.55160000     -36.87490000     -71.87850000
