40
Properties=species:S:1:pos:R:3 #=T CELL(abcABC):=T 1.889726e+02=T 90.00000=T Traj:=T positionsangstrom=T Step:=T 0=T Bead:=T pbc="F F F"
C      -48.25130000     -34.33670000     -69.07410000
C      -48.18350000     -34.62560000     -70.41960000
C      -48.45690000     -33.64890000     -71.41760000
C      -48.56670000     -32.38240000     -70.91700000
C      -48.81910000     -32.08760000     -69.61180000
C      -48.69950000     -33.07480000     -68.64910000
H      -47.98070000     -35.05980000     -68.32490000
H      -48.44320000     -33.68870000     -72.48930000
H      -49.05660000     -31.08760000     -69.38090000
H      -48.89800000     -32.90960000     -67.58950000
C      -48.49720000     -31.27590000     -71.95790000
H      -49.43010000     -30.72860000     -72.13260000
H      -48.22290000     -31.64390000     -72.97270000
C      -48.01080000     -36.07600000     -70.89250000
H      -47.31960000     -36.56660000     -70.16550000
H      -48.93540000     -36.66730000     -71.12400000
S      -47.19900000     -29.97580000     -71.47940000
S      -47.26020000     -36.32860000     -72.62590000
C      -45.65900000     -30.87800000     -71.96170000
H      -45.83000000     -31.38970000     -72.91470000
H      -45.04230000     -30.05930000     -72.25000000
C      -45.83620000     -35.19530000     -72.65340000
H      -46.23950000     -34.22580000     -72.84120000
H      -45.29650000     -35.52030000     -73.57880000
C      -44.90110000     -35.48790000     -71.44970000
H      -45.37380000     -35.07470000     -70.57450000
H      -44.87470000     -36.58880000     -71.29600000
C      -45.25990000     -31.93060000     -70.94080000
H      -45.84950000     -32.79290000     -71.07430000
H      -45.46390000     -31.51170000     -69.91460000
C      -43.71700000     -32.26610000     -71.00060000
C      -42.74170000     -31.27480000     -70.68420000
C      -43.12700000     -33.53760000     -71.53650000
H      -42.76900000     -30.34370000     -70.11980000
C      -41.72840000     -33.36240000     -71.59070000
C      -43.47840000     -34.92640000     -71.73160000
C      -42.43490000     -35.80170000     -72.03400000
S      -41.09280000     -31.82310000     -71.03650000
S      -40.92600000     -34.85320000     -71.95270000
H      -42.46970000     -36.90550000     -72.13270000
