40
Properties=species:S:1:pos:R:3 #=T CELL(abcABC):=T 1.889726e+02=T 90.00000=T Traj:=T positionsangstrom=T Step:=T 0=T Bead:=T pbc="F F F"
C      -47.32430000     -30.40620000     -71.76320000
C      -46.72970000     -31.64410000     -72.09680000
C      -45.31890000     -31.73800000     -72.00990000
C      -44.57760000     -30.77250000     -71.31260000
C      -45.20510000     -29.58030000     -71.00050000
C      -46.56940000     -29.34790000     -71.19710000
H      -48.38040000     -30.33200000     -71.88930000
H      -44.84280000     -32.64010000     -72.08320000
H      -44.61470000     -28.88240000     -70.48560000
H      -47.02920000     -28.41400000     -70.97850000
C      -43.17100000     -31.01490000     -70.87520000
H      -42.55710000     -30.10280000     -70.89250000
H      -42.73070000     -31.74650000     -71.65360000
C      -47.49180000     -32.71240000     -72.85020000
H      -48.04250000     -32.30310000     -73.68520000
H      -46.75250000     -33.49290000     -73.17900000
S      -43.03040000     -31.70720000     -69.07260000
S      -48.86530000     -33.51840000     -71.78350000
C      -44.40990000     -32.73930000     -68.63730000
H      -44.85650000     -32.51590000     -67.68860000
H      -45.21710000     -32.40130000     -69.26000000
C      -47.93160000     -33.75820000     -70.23310000
H      -48.64200000     -33.69640000     -69.39270000
H      -47.12590000     -32.96620000     -70.09580000
C      -47.25290000     -35.14060000     -70.18180000
H      -46.81700000     -35.35690000     -69.18140000
H      -48.12010000     -35.88190000     -70.25400000
C      -44.26200000     -34.26260000     -68.88700000
H      -45.14710000     -34.74820000     -68.51170000
H      -43.50240000     -34.65070000     -68.15550000
C      -43.93760000     -34.62710000     -70.33540000
C      -42.62790000     -34.54460000     -70.75540000
C      -44.91840000     -34.98380000     -71.33000000
H      -41.69300000     -34.24330000     -70.18680000
C      -44.29200000     -35.26550000     -72.52160000
C      -46.28650000     -35.42030000     -71.26040000
C      -46.62860000     -36.05170000     -72.43230000
S      -42.55150000     -35.01440000     -72.49400000
S      -45.25120000     -36.16540000     -73.64420000
H      -47.54530000     -36.66030000     -72.70240000
