40
Properties=species:S:1:pos:R:3 #=T CELL(abcABC):=T 1.889726e+02=T 90.00000=T Traj:=T positionsangstrom=T Step:=T 0=T Bead:=T pbc="F F F"
C      -47.50950000     -35.41870000     -69.28310000
C      -47.70350000     -35.38840000     -70.64350000
C      -48.32440000     -34.20880000     -71.16060000
C      -48.42690000     -33.04020000     -70.38020000
C      -48.14260000     -33.10760000     -68.92520000
C      -47.66850000     -34.29750000     -68.43650000
H      -47.17800000     -36.32840000     -68.80950000
H      -48.67290000     -34.20790000     -72.19010000
H      -48.58020000     -32.31730000     -68.35910000
H      -47.53290000     -34.43550000     -67.33460000
C      -49.04470000     -31.75130000     -70.93140000
H      -49.68100000     -31.33660000     -70.18230000
H      -49.65500000     -32.00870000     -71.72720000
C      -47.61020000     -36.69740000     -71.32030000
H      -46.90600000     -37.35260000     -70.78500000
H      -48.56070000     -37.24750000     -71.42570000
S      -47.78470000     -30.44270000     -71.41440000
S      -47.05490000     -36.65030000     -73.06640000
C      -46.21390000     -31.21950000     -71.82310000
H      -46.30010000     -32.12990000     -72.32140000
H      -45.60640000     -30.48850000     -72.44320000
C      -45.29960000     -35.99050000     -72.94310000
H      -45.07300000     -35.93550000     -74.01970000
H      -44.70080000     -36.65920000     -72.32390000
C      -45.12570000     -34.46210000     -72.44410000
H      -45.65670000     -33.83680000     -73.17230000
H      -45.60620000     -34.47020000     -71.50980000
C      -45.36580000     -31.51790000     -70.49050000
H      -45.80410000     -32.43160000     -70.13240000
H      -45.51810000     -30.82510000     -69.62250000
C      -43.89000000     -31.66810000     -70.82370000
C      -42.96870000     -30.74940000     -70.39230000
C      -43.25260000     -32.81100000     -71.46200000
H      -43.15590000     -29.83220000     -69.83950000
C      -41.85960000     -32.71470000     -71.43590000
C      -43.69050000     -33.97700000     -72.16940000
C      -42.59770000     -34.60790000     -72.74150000
S      -41.29340000     -31.27060000     -70.65300000
S      -40.99240000     -33.92820000     -72.27110000
H      -42.65460000     -35.44560000     -73.34130000
