40
Properties=species:S:1:pos:R:3 #=T CELL(abcABC):=T 1.889726e+02=T 90.00000=T Traj:=T positionsangstrom=T Step:=T 0=T Bead:=T pbc="F F F"
C      -47.60420000     -30.33720000     -70.88060000
C      -47.17310000     -31.42480000     -71.64990000
C      -45.76460000     -31.63790000     -71.74020000
C      -44.83820000     -30.78110000     -71.03890000
C      -45.33260000     -29.61980000     -70.47590000
C      -46.70860000     -29.43600000     -70.45480000
H      -48.63930000     -30.14780000     -70.68320000
H      -45.26660000     -32.45610000     -72.28840000
H      -44.64700000     -28.85910000     -70.16640000
H      -47.04800000     -28.51510000     -69.95950000
C      -43.33220000     -31.08370000     -71.05620000
H      -42.85810000     -30.13350000     -71.16990000
H      -42.90640000     -31.69130000     -71.88210000
C      -48.21510000     -32.29310000     -72.32530000
H      -49.04650000     -31.59670000     -72.68050000
H      -47.85560000     -32.73080000     -73.23190000
S      -42.63610000     -31.91960000     -69.57650000
S      -49.02010000     -33.60180000     -71.26200000
C      -44.04440000     -32.90430000     -68.88210000
H      -44.12220000     -32.59870000     -67.80650000
H      -44.91330000     -32.52170000     -69.37970000
C      -47.63050000     -33.88670000     -70.01480000
H      -48.15440000     -33.72080000     -69.03010000
H      -46.78590000     -33.11410000     -70.16420000
C      -46.94310000     -35.29940000     -70.17910000
H      -46.32140000     -35.63330000     -69.28580000
H      -47.70670000     -36.02440000     -70.18010000
C      -43.85760000     -34.42610000     -69.06930000
H      -44.64050000     -34.99570000     -68.52580000
H      -42.99850000     -34.78830000     -68.49900000
C      -43.69410000     -34.83600000     -70.53520000
C      -42.43400000     -34.86780000     -71.15960000
C      -44.66460000     -35.18170000     -71.53960000
H      -41.41680000     -34.82640000     -70.82090000
C      -44.19350000     -35.24240000     -72.81140000
C      -46.11490000     -35.31700000     -71.45780000
C      -46.68630000     -35.67740000     -72.68470000
S      -42.46710000     -35.08840000     -72.91480000
S      -45.48220000     -35.72700000     -73.94160000
H      -47.71530000     -35.97110000     -72.78080000
