40
Properties=species:S:1:pos:R:3 #=T CELL(abcABC):=T 1.889726e+02=T 90.00000=T Traj:=T positionsangstrom=T Step:=T 0=T Bead:=T pbc="F F F"
C      -47.72610000     -30.49620000     -70.06980000
C      -47.31930000     -31.49980000     -71.01510000
C      -45.96030000     -31.68880000     -71.28330000
C      -45.00280000     -30.76390000     -70.66800000
C      -45.45070000     -29.75670000     -69.82570000
C      -46.81630000     -29.59860000     -69.49910000
H      -48.80940000     -30.40040000     -69.90890000
H      -45.59360000     -32.43610000     -71.99790000
H      -44.69800000     -29.10930000     -69.30160000
H      -47.09640000     -28.82060000     -68.82570000
C      -43.50260000     -30.98690000     -71.01320000
H      -42.97580000     -29.92840000     -71.02480000
H      -43.40570000     -31.49070000     -72.02200000
C      -48.41870000     -32.40710000     -71.45120000
H      -49.36760000     -31.82760000     -71.58090000
H      -48.28360000     -32.89100000     -72.42680000
S      -42.54500000     -31.92940000     -69.83200000
S      -48.90390000     -33.76790000     -70.27960000
C      -43.69160000     -33.30600000     -69.31360000
H      -43.71510000     -33.25530000     -68.22060000
H      -44.71890000     -32.98950000     -69.60420000
C      -47.35110000     -34.33140000     -69.47130000
H      -47.69150000     -34.72430000     -68.56640000
H      -46.76500000     -33.49050000     -69.20600000
C      -46.58260000     -35.39370000     -70.34840000
H      -45.76260000     -35.71110000     -69.73940000
H      -47.21680000     -36.33160000     -70.40840000
C      -43.26760000     -34.68690000     -69.70980000
H      -43.87030000     -35.46030000     -69.16030000
H      -42.19410000     -34.97730000     -69.41120000
C      -43.36020000     -34.96300000     -71.22160000
C      -42.27830000     -35.11940000     -72.05890000
C      -44.58710000     -35.01030000     -71.97710000
H      -41.19360000     -35.08310000     -71.77610000
C      -44.39280000     -35.07950000     -73.38990000
C      -46.01550000     -34.97010000     -71.68560000
C      -46.77590000     -34.92340000     -72.82130000
S      -42.66890000     -35.17740000     -73.77010000
S      -45.82030000     -35.07260000     -74.32120000
H      -47.82840000     -35.10030000     -72.68950000
