40
Properties=species:S:1:pos:R:3 #=T CELL(abcABC):=T 1.889726e+02=T 90.00000=T Traj:=T positionsangstrom=T Step:=T 0=T Bead:=T pbc="F F F"
C      -47.70420000     -30.42900000     -69.76380000
C      -47.33250000     -31.41150000     -70.67840000
C      -45.98450000     -31.47080000     -71.07110000
C      -45.02390000     -30.65210000     -70.51730000
C      -45.42510000     -29.55470000     -69.70990000
C      -46.73400000     -29.52490000     -69.28650000
H      -48.78610000     -30.44880000     -69.41620000
H      -45.75260000     -32.33970000     -71.69410000
H      -44.73940000     -28.76720000     -69.38180000
H      -46.95540000     -28.89380000     -68.49030000
C      -43.65610000     -30.82280000     -71.04660000
H      -43.12340000     -29.93390000     -71.01290000
H      -43.69980000     -31.02760000     -72.05490000
C      -48.19270000     -32.45750000     -71.29970000
H      -49.00800000     -31.89370000     -71.80420000
H      -47.67950000     -32.99080000     -72.08200000
S      -42.50780000     -32.03710000     -70.13870000
S      -48.85720000     -33.77070000     -70.08360000
C      -43.62350000     -33.40820000     -69.44530000
H      -43.64280000     -33.23560000     -68.35250000
H      -44.65440000     -33.35180000     -69.75970000
C      -47.15680000     -34.16200000     -69.49830000
H      -47.41660000     -34.53750000     -68.47970000
H      -46.48570000     -33.30100000     -69.34480000
C      -46.52830000     -35.40430000     -70.26640000
H      -45.63100000     -35.78410000     -69.68050000
H      -47.25710000     -36.18690000     -70.20490000
C      -43.13490000     -34.83810000     -69.92350000
H      -43.43890000     -35.61740000     -69.24260000
H      -42.03460000     -34.82420000     -69.64960000
C      -43.38810000     -35.10510000     -71.38800000
C      -42.28670000     -35.08640000     -72.25170000
C      -44.61590000     -35.04330000     -72.08460000
H      -41.21120000     -35.05300000     -71.93950000
C      -44.49920000     -35.00260000     -73.45540000
C      -46.02530000     -35.20900000     -71.69620000
C      -46.86560000     -35.19430000     -72.80050000
S      -42.75550000     -35.24710000     -73.91920000
S      -45.99410000     -34.98060000     -74.32100000
H      -47.89230000     -35.47320000     -72.64260000
