40
Properties=species:S:1:pos:R:3 #=T CELL(abcABC):=T 1.889726e+02=T 90.00000=T Traj:=T positionsangstrom=T Step:=T 0=T Bead:=T pbc="F F F"
C      -47.41560000     -30.43420000     -69.25330000
C      -47.25750000     -31.34640000     -70.32610000
C      -45.98940000     -31.40200000     -70.87860000
C      -44.87660000     -30.67800000     -70.35170000
C      -45.06100000     -29.83510000     -69.26510000
C      -46.36780000     -29.65900000     -68.77500000
H      -48.31860000     -30.41900000     -68.70730000
H      -45.74170000     -32.03200000     -71.69950000
H      -44.25540000     -29.40590000     -68.62380000
H      -46.60890000     -28.88830000     -67.95400000
C      -43.61250000     -30.88090000     -71.15790000
H      -43.11150000     -29.96020000     -71.43900000
H      -43.93320000     -31.33630000     -72.04460000
C      -48.32400000     -32.15850000     -70.93270000
H      -49.32030000     -31.76680000     -71.07210000
H      -47.97200000     -32.47740000     -71.93930000
S      -42.37240000     -32.03470000     -70.40740000
S      -48.71330000     -33.73580000     -69.95310000
C      -43.35750000     -33.35590000     -69.61190000
H      -43.19450000     -33.40660000     -68.53860000
H      -44.43170000     -33.19250000     -69.62430000
C      -46.95580000     -34.14920000     -69.57020000
H      -46.82290000     -34.23410000     -68.45980000
H      -46.31470000     -33.32890000     -69.89320000
C      -46.38190000     -35.43710000     -70.16250000
H      -45.47030000     -35.60630000     -69.66720000
H      -47.02460000     -36.34120000     -69.93340000
C      -43.03850000     -34.74180000     -70.22940000
H      -43.67720000     -35.35470000     -69.53870000
H      -42.01110000     -34.98460000     -69.99960000
C      -43.43640000     -34.90990000     -71.69390000
C      -42.46870000     -34.90760000     -72.67930000
C      -44.74050000     -35.13180000     -72.22770000
H      -41.46700000     -34.65260000     -72.55620000
C      -44.73830000     -35.12830000     -73.58740000
C      -46.05580000     -35.29610000     -71.61800000
C      -47.01550000     -35.39870000     -72.59720000
S      -43.16370000     -34.98030000     -74.32150000
S      -46.32430000     -35.28100000     -74.29150000
H      -48.04660000     -35.51740000     -72.36540000
