40
Properties=species:S:1:pos:R:3 #=T CELL(abcABC):=T 1.889726e+02=T 90.00000=T Traj:=T positionsangstrom=T Step:=T 0=T Bead:=T pbc="F F F"
C      -46.36930000     -32.40940000     -69.25660000
C      -46.32240000     -33.82090000     -69.06900000
C      -45.08880000     -34.49120000     -68.82080000
C      -43.90850000     -33.81360000     -69.06320000
C      -43.91530000     -32.43230000     -69.35480000
C      -45.14630000     -31.74480000     -69.44800000
H      -47.34370000     -31.98010000     -69.64030000
H      -45.12350000     -35.57570000     -68.65890000
H      -42.96150000     -31.91260000     -69.55590000
H      -45.07160000     -30.70810000     -69.72860000
C      -42.61950000     -34.62680000     -69.18750000
H      -42.79960000     -35.76430000     -69.10820000
H      -41.90730000     -34.51290000     -68.33770000
C      -47.58890000     -34.66210000     -69.02560000
H      -47.44950000     -35.77060000     -69.06070000
H      -48.01790000     -34.52710000     -68.04160000
S      -41.49910000     -34.22380000     -70.65610000
S      -48.88660000     -34.29280000     -70.28750000
C      -42.33980000     -35.37130000     -71.86020000
H      -41.66670000     -35.43410000     -72.76130000
H      -42.23880000     -36.40100000     -71.40670000
C      -48.42550000     -35.38970000     -71.74640000
H      -49.09440000     -35.01930000     -72.56630000
H      -48.62240000     -36.48590000     -71.47350000
C      -47.00910000     -35.05810000     -72.14640000
H      -46.33750000     -35.36820000     -71.37450000
H      -46.74330000     -35.65050000     -73.02970000
C      -43.80620000     -35.09230000     -72.22090000
H      -44.38670000     -35.32680000     -71.33710000
H      -44.16430000     -35.89600000     -72.93310000
C      -44.10430000     -33.66250000     -72.73450000
C      -43.16930000     -32.68860000     -72.92570000
C      -45.47020000     -33.13330000     -72.74870000
H      -42.12930000     -32.84950000     -72.89050000
C      -45.46740000     -31.78390000     -73.11900000
C      -46.81900000     -33.61960000     -72.53530000
C      -47.75790000     -32.66200000     -72.68540000
S      -43.82280000     -31.13780000     -73.41790000
S      -47.11460000     -31.11390000     -73.14660000
H      -48.86130000     -32.80220000     -72.66500000
