40
Properties=species:S:1:pos:R:3 #=T CELL(abcABC):=T 1.889726e+02=T 90.00000=T Traj:=T positionsangstrom=T Step:=T 0=T Bead:=T pbc="F F F"
C      -46.47270000     -32.57450000     -69.20950000
C      -46.40380000     -33.96400000     -69.01530000
C      -45.20100000     -34.66940000     -69.10600000
C      -44.01230000     -33.97230000     -69.16870000
C      -43.98900000     -32.53530000     -69.31890000
C      -45.20030000     -31.87500000     -69.48480000
H      -47.46570000     -32.03730000     -69.08930000
H      -45.12150000     -35.75970000     -69.00640000
H      -43.03670000     -32.12600000     -69.48750000
H      -45.28970000     -30.80780000     -69.73330000
C      -42.69790000     -34.67720000     -69.09190000
H      -42.86630000     -35.71440000     -68.94850000
H      -42.21780000     -34.20750000     -68.26540000
C      -47.77580000     -34.59980000     -68.65270000
H      -47.72750000     -35.65670000     -68.45260000
H      -48.15220000     -34.04090000     -67.77240000
S      -41.51710000     -34.37570000     -70.49330000
S      -48.99550000     -34.29140000     -69.98870000
C      -42.12980000     -35.15390000     -72.08610000
H      -41.63870000     -34.84050000     -72.97480000
H      -41.90960000     -36.20040000     -71.98700000
C      -48.36800000     -35.30850000     -71.36240000
H      -49.16070000     -35.49170000     -72.02980000
H      -48.26650000     -36.27030000     -70.97260000
C      -47.05060000     -34.96500000     -71.99880000
H      -46.15310000     -35.29050000     -71.39130000
H      -46.93350000     -35.75670000     -72.81970000
C      -43.61350000     -34.93670000     -72.33280000
H      -44.22490000     -35.11990000     -71.49520000
H      -44.00070000     -35.67440000     -73.08850000
C      -44.01510000     -33.49320000     -72.83720000
C      -43.09380000     -32.51410000     -73.04680000
C      -45.40170000     -33.07670000     -72.88010000
H      -42.07060000     -32.61450000     -72.92030000
C      -45.38560000     -31.74290000     -73.25560000
C      -46.72830000     -33.63690000     -72.57270000
C      -47.66010000     -32.70890000     -72.81280000
S      -43.83180000     -31.01540000     -73.57310000
S      -47.02470000     -31.15540000     -73.39730000
H      -48.74670000     -32.85420000     -72.50480000
