40
Properties=species:S:1:pos:R:3 #=T CELL(abcABC):=T 1.889726e+02=T 90.00000=T Traj:=T positionsangstrom=T Step:=T 0=T Bead:=T pbc="F F F"
C      -46.40920000     -32.43430000     -69.00550000
C      -46.45780000     -33.85380000     -68.72030000
C      -45.31530000     -34.57950000     -68.83580000
C      -44.10620000     -33.95770000     -69.28740000
C      -44.02750000     -32.60640000     -69.68540000
C      -45.24420000     -31.85630000     -69.51290000
H      -47.33300000     -31.89050000     -68.96290000
H      -45.29280000     -35.62390000     -68.57990000
H      -43.11740000     -32.22980000     -70.12850000
H      -45.34050000     -30.81470000     -69.85280000
C      -42.91700000     -34.81920000     -69.25810000
H      -43.12950000     -35.84890000     -69.58310000
H      -42.60610000     -35.04930000     -68.19200000
C      -47.77080000     -34.59940000     -68.49510000
H      -47.46030000     -35.62520000     -68.38240000
H      -48.43320000     -34.28320000     -67.64310000
S      -41.44150000     -34.45180000     -70.35880000
S      -49.01760000     -34.47570000     -69.86120000
C      -42.03420000     -35.20890000     -71.94700000
H      -41.32820000     -35.08110000     -72.81640000
H      -42.08050000     -36.30600000     -71.69970000
C      -48.37500000     -35.17950000     -71.38940000
H      -49.07770000     -34.76240000     -72.19700000
H      -48.41440000     -36.31550000     -71.36690000
C      -46.87360000     -34.81130000     -71.79170000
H      -46.31330000     -34.85490000     -70.84670000
H      -46.52050000     -35.51950000     -72.46230000
C      -43.48680000     -34.84360000     -72.39070000
H      -44.13440000     -35.23900000     -71.56550000
H      -43.61200000     -35.49130000     -73.24710000
C      -43.95820000     -33.39810000     -72.69600000
C      -43.07220000     -32.48110000     -73.19220000
C      -45.36520000     -32.98940000     -72.82350000
H      -42.00440000     -32.65470000     -73.22710000
C      -45.40500000     -31.71930000     -73.33220000
C      -46.66560000     -33.50510000     -72.45840000
C      -47.64190000     -32.66790000     -72.90150000
S      -43.90090000     -31.00830000     -73.76060000
S      -47.03900000     -31.24040000     -73.64780000
H      -48.71400000     -32.75120000     -72.66670000
