40
Properties=species:S:1:pos:R:3 #=T CELL(abcABC):=T 1.889726e+02=T 90.00000=T Traj:=T positionsangstrom=T Step:=T 0=T Bead:=T pbc="F F F"
C      -46.41260000     -32.54640000     -69.25420000
C      -46.53420000     -33.83120000     -68.75980000
C      -45.37640000     -34.63070000     -68.62920000
C      -44.15450000     -34.08360000     -69.03230000
C      -43.98840000     -32.73490000     -69.48480000
C      -45.17690000     -31.97240000     -69.55820000
H      -47.27490000     -31.98190000     -69.27250000
H      -45.48450000     -35.66280000     -68.30810000
H      -42.93650000     -32.37280000     -69.75540000
H      -45.11770000     -30.92500000     -69.82050000
C      -42.87630000     -34.93970000     -69.18620000
H      -43.21540000     -35.97470000     -69.31790000
H      -42.36430000     -34.91230000     -68.24330000
C      -47.84010000     -34.53110000     -68.39200000
H      -47.64040000     -35.60550000     -68.09570000
H      -48.37620000     -34.18050000     -67.54070000
S      -41.57890000     -34.41540000     -70.37810000
S      -48.99680000     -34.33560000     -69.80420000
C      -42.10660000     -35.01840000     -72.05540000
H      -41.42160000     -34.46750000     -72.73220000
H      -41.94100000     -36.05700000     -72.17400000
C      -48.19790000     -35.24370000     -71.26620000
H      -48.99940000     -35.11530000     -71.96980000
H      -48.05690000     -36.22550000     -70.87570000
C      -46.79870000     -34.84020000     -71.87580000
H      -46.02050000     -35.02720000     -71.12160000
H      -46.63360000     -35.59550000     -72.75110000
C      -43.60060000     -34.76340000     -72.24160000
H      -44.09480000     -34.99990000     -71.28700000
H      -44.05310000     -35.52630000     -72.89180000
C      -43.92930000     -33.37930000     -72.74000000
C      -43.05890000     -32.46670000     -73.29920000
C      -45.34690000     -32.99890000     -72.88810000
H      -41.94320000     -32.56460000     -73.35680000
C      -45.41580000     -31.76930000     -73.51050000
C      -46.61300000     -33.48330000     -72.43920000
C      -47.64180000     -32.63510000     -72.82310000
S      -43.81920000     -31.09760000     -73.97000000
S      -47.04560000     -31.20500000     -73.62340000
H      -48.69610000     -32.79390000     -72.64380000
