40
Properties=species:S:1:pos:R:3 #=T CELL(abcABC):=T 1.889726e+02=T 90.00000=T Traj:=T positionsangstrom=T Step:=T 0=T Bead:=T pbc="F F F"
C      -46.28770000     -32.32750000     -69.29420000
C      -46.42280000     -33.65150000     -68.86660000
C      -45.27570000     -34.40030000     -68.66550000
C      -43.94670000     -33.82260000     -68.94870000
C      -43.84780000     -32.48110000     -69.32660000
C      -45.03440000     -31.73160000     -69.40630000
H      -47.18220000     -31.65400000     -69.28230000
H      -45.21340000     -35.48100000     -68.47110000
H      -42.96780000     -32.03060000     -69.66720000
H      -44.91240000     -30.71550000     -69.84780000
C      -42.80460000     -34.78880000     -68.89650000
H      -43.11490000     -35.84050000     -68.92490000
H      -42.23190000     -34.92210000     -67.97210000
C      -47.77040000     -34.44110000     -68.69360000
H      -47.66100000     -35.47200000     -68.84660000
H      -48.38890000     -34.26690000     -67.71320000
S      -41.60210000     -34.58950000     -70.28920000
S      -48.90580000     -34.03270000     -70.11070000
C      -42.26690000     -35.24010000     -71.91560000
H      -41.60280000     -34.79940000     -72.63650000
H      -42.12840000     -36.36820000     -71.95390000
C      -48.44930000     -35.12960000     -71.46960000
H      -49.07910000     -34.88200000     -72.29190000
H      -48.74940000     -36.15950000     -71.14580000
C      -47.00690000     -35.01110000     -71.94340000
H      -46.31610000     -35.29460000     -71.11640000
H      -46.86460000     -35.77940000     -72.78180000
C      -43.69770000     -34.92670000     -72.18210000
H      -44.23460000     -34.87180000     -71.23870000
H      -44.10380000     -35.73420000     -72.81280000
C      -44.01310000     -33.62650000     -72.84630000
C      -43.15880000     -32.77700000     -73.44180000
C      -45.36300000     -33.10720000     -72.73120000
H      -42.09760000     -32.84170000     -73.71680000
C      -45.45560000     -31.86660000     -73.37930000
C      -46.67130000     -33.62570000     -72.46610000
C      -47.62460000     -32.64430000     -72.65740000
S      -43.91480000     -31.32010000     -74.05990000
S      -46.96690000     -31.21300000     -73.40170000
H      -48.70110000     -32.84250000     -72.64600000
