40
Properties=species:S:1:pos:R:3 #=T CELL(abcABC):=T 1.889726e+02=T 90.00000=T Traj:=T positionsangstrom=T Step:=T 0=T Bead:=T pbc="F F F"
C      -44.60250000     -31.45640000     -75.15850000
C      -43.79520000     -32.50930000     -74.59650000
C      -44.47840000     -33.74660000     -74.42400000
C      -45.71770000     -34.05130000     -74.91380000
C      -46.43940000     -32.98810000     -75.49700000
C      -45.90790000     -31.70190000     -75.57680000
H      -44.16570000     -30.51000000     -75.18880000
H      -44.01040000     -34.58220000     -73.97030000
H      -47.41740000     -33.16450000     -76.01030000
H      -46.61450000     -30.88940000     -75.80500000
C      -46.27460000     -35.40920000     -74.70910000
H      -45.99040000     -36.06650000     -75.59800000
H      -47.35910000     -35.41080000     -74.65100000
C      -42.44290000     -32.20460000     -74.05320000
H      -41.67940000     -32.79090000     -74.53390000
H      -42.15090000     -31.15060000     -74.18400000
S      -45.83310000     -36.29650000     -73.18150000
S      -42.19250000     -32.68420000     -72.30700000
C      -46.40270000     -35.06530000     -71.83790000
H      -46.14310000     -34.03270000     -72.19690000
H      -47.46790000     -35.25460000     -71.62450000
C      -43.69130000     -32.22480000     -71.39380000
H      -44.69830000     -32.71040000     -71.59120000
H      -43.88510000     -31.17720000     -71.33750000
C      -43.38190000     -32.72710000     -69.97630000
H      -43.19100000     -33.78170000     -69.86840000
H      -42.49740000     -32.19210000     -69.58230000
C      -45.58080000     -35.34330000     -70.47110000
H      -44.56320000     -35.12220000     -70.55580000
H      -45.56920000     -36.35170000     -70.21440000
C      -46.19460000     -34.56850000     -69.34980000
C      -47.28480000     -35.10350000     -68.77890000
C      -45.72610000     -33.27070000     -68.80040000
H      -47.77350000     -35.99800000     -69.07440000
C      -46.71860000     -32.81720000     -67.95790000
C      -44.53980000     -32.44600000     -69.00130000
C      -44.59730000     -31.31050000     -68.24740000
S      -47.95320000     -33.94120000     -67.54350000
S      -46.10490000     -31.30390000     -67.25540000
H      -44.03010000     -30.39080000     -68.16050000
