40
Properties=species:S:1:pos:R:3 #=T CELL(abcABC):=T 1.889726e+02=T 90.00000=T Traj:=T positionsangstrom=T Step:=T 0=T Bead:=T pbc="F F F"
C      -44.70390000     -31.52400000     -75.25810000
C      -43.89460000     -32.46300000     -74.60640000
C      -44.39780000     -33.77830000     -74.51260000
C      -45.68660000     -34.05600000     -74.95290000
C      -46.44920000     -33.15370000     -75.60770000
C      -45.97960000     -31.86200000     -75.73780000
H      -44.26010000     -30.54900000     -75.54410000
H      -43.92860000     -34.56610000     -73.91880000
H      -47.47310000     -33.36920000     -75.91380000
H      -46.57630000     -31.22170000     -76.36250000
C      -46.29610000     -35.50460000     -74.79810000
H      -46.06100000     -36.11950000     -75.63310000
H      -47.38800000     -35.25870000     -74.82160000
C      -42.43400000     -32.06330000     -74.08500000
H      -41.68520000     -32.53020000     -74.72230000
H      -42.29260000     -30.95120000     -74.13940000
S      -45.95170000     -36.38470000     -73.17730000
S      -42.11250000     -32.66110000     -72.33290000
C      -46.45810000     -35.20410000     -71.86160000
H      -46.45390000     -34.21180000     -72.25400000
H      -47.50770000     -35.40110000     -71.58800000
C      -43.56450000     -32.05100000     -71.34630000
H      -44.47090000     -32.48200000     -71.77680000
H      -43.58930000     -30.95180000     -71.44870000
C      -43.36250000     -32.44110000     -69.85440000
H      -42.98450000     -33.45440000     -69.85800000
H      -42.52100000     -31.89440000     -69.39800000
C      -45.53620000     -35.22510000     -70.58550000
H      -44.54870000     -34.81570000     -70.82310000
H      -45.30860000     -36.34300000     -70.28220000
C      -46.12910000     -34.50040000     -69.41890000
C      -47.28890000     -34.96160000     -68.83240000
C      -45.68840000     -33.17950000     -68.87280000
H      -47.74960000     -35.90260000     -69.00160000
C      -46.67910000     -32.80570000     -67.92920000
C      -44.52320000     -32.30170000     -68.90130000
C      -44.60060000     -31.35120000     -67.90280000
S      -48.00150000     -33.96020000     -67.66440000
S      -46.07110000     -31.44610000     -66.96370000
H      -43.96090000     -30.52380000     -67.58700000
