40
Properties=species:S:1:pos:R:3 #=T CELL(abcABC):=T 1.889726e+02=T 90.00000=T Traj:=T positionsangstrom=T Step:=T 0=T Bead:=T pbc="F F F"
C      -45.02710000     -31.55130000     -75.50760000
C      -44.18180000     -32.34880000     -74.72390000
C      -44.50430000     -33.70330000     -74.55550000
C      -45.71460000     -34.24810000     -75.05470000
C      -46.59090000     -33.34200000     -75.70840000
C      -46.24600000     -32.01170000     -75.97660000
H      -44.67020000     -30.60340000     -75.77540000
H      -43.77110000     -34.35450000     -74.08290000
H      -47.50040000     -33.78890000     -75.98180000
H      -46.89110000     -31.31240000     -76.48760000
C      -46.14740000     -35.70690000     -74.90130000
H      -45.73520000     -36.38780000     -75.65530000
H      -47.15630000     -35.75150000     -74.93960000
C      -42.83120000     -31.80970000     -74.10100000
H      -41.95770000     -32.03000000     -74.71440000
H      -42.88120000     -30.70780000     -73.86940000
S      -45.60300000     -36.28910000     -73.17590000
S      -42.32150000     -32.67980000     -72.54500000
C      -46.56870000     -35.37910000     -71.89610000
H      -46.92540000     -34.42300000     -72.27150000
H      -47.44000000     -35.98920000     -71.53050000
C      -43.39830000     -31.93300000     -71.16840000
H      -44.46410000     -31.92700000     -71.39800000
H      -43.14480000     -30.91050000     -71.01330000
C      -43.27110000     -32.65030000     -69.81660000
H      -43.18220000     -33.72120000     -69.92610000
H      -42.31960000     -32.23920000     -69.36320000
C      -45.69660000     -35.12340000     -70.73680000
H      -44.75310000     -34.57840000     -70.98620000
H      -45.17880000     -36.05540000     -70.46230000
C      -46.31980000     -34.39500000     -69.51020000
C      -47.52560000     -34.70880000     -68.96580000
C      -45.72450000     -33.27160000     -68.77070000
H      -48.10410000     -35.56300000     -69.21560000
C      -46.42680000     -32.83560000     -67.63610000
C      -44.45520000     -32.47650000     -68.84880000
C      -44.35190000     -31.57800000     -67.78220000
S      -47.91450000     -33.74010000     -67.48090000
S      -45.78230000     -31.47760000     -66.69640000
H      -43.47950000     -30.94360000     -67.92420000
