40
Properties=species:S:1:pos:R:3 #=T CELL(abcABC):=T 1.889726e+02=T 90.00000=T Traj:=T positionsangstrom=T Step:=T 0=T Bead:=T pbc="F F F"
C      -43.55600000     -30.01790000     -70.22400000
C      -44.86700000     -30.31090000     -69.96810000
C      -45.75500000     -30.31170000     -71.04930000
C      -45.29440000     -30.07810000     -72.31850000
C      -43.86470000     -30.05390000     -72.56200000
C      -42.98240000     -29.97150000     -71.46640000
H      -42.88150000     -29.83980000     -69.36530000
H      -46.83960000     -30.41750000     -70.84490000
H      -43.48420000     -30.05820000     -73.59630000
H      -41.92490000     -29.66720000     -71.52210000
C      -46.23960000     -29.87340000     -73.45380000
H      -45.82390000     -29.29710000     -74.24570000
H      -47.13310000     -29.36140000     -73.05040000
C      -45.40160000     -30.38460000     -68.53810000
H      -44.55390000     -30.63490000     -67.87570000
H      -45.86830000     -29.47510000     -68.17430000
S      -46.86780000     -31.57740000     -74.28770000
S      -46.69560000     -31.63590000     -68.23350000
C      -45.72240000     -32.89570000     -73.59310000
H      -45.09450000     -33.18300000     -74.48870000
H      -44.95280000     -32.47440000     -72.90590000
C      -45.74650000     -33.27540000     -68.42640000
H      -46.28640000     -33.91510000     -67.75510000
H      -44.76700000     -33.06090000     -67.95490000
C      -45.69680000     -33.73330000     -69.86280000
H      -46.79200000     -33.72290000     -70.14550000
H      -45.21920000     -32.94950000     -70.47050000
C      -46.54340000     -34.07310000     -73.03580000
H      -47.24600000     -34.33120000     -73.84100000
H      -47.13330000     -33.71510000     -72.22650000
C      -45.76810000     -35.28640000     -72.69990000
C      -45.55850000     -36.25290000     -73.64240000
C      -45.23860000     -35.68350000     -71.41390000
H      -45.74350000     -36.15190000     -74.72840000
C      -44.62330000     -36.97290000     -71.46070000
C      -45.14470000     -35.06830000     -70.13300000
C      -44.49540000     -35.82410000     -69.16950000
S      -44.77980000     -37.68860000     -73.02130000
S      -44.00690000     -37.38950000     -69.85470000
H      -44.21510000     -35.75070000     -68.12430000
