40
Properties=species:S:1:pos:R:3 #=T CELL(abcABC):=T 1.889726e+02=T 90.00000=T Traj:=T positionsangstrom=T Step:=T 0=T Bead:=T pbc="F F F"
C      -45.82820000     -31.24850000     -69.82090000
C      -46.14580000     -32.39320000     -69.00760000
C      -45.12710000     -33.29520000     -68.79080000
C      -43.83860000     -33.21560000     -69.27090000
C      -43.51690000     -32.06020000     -69.97730000
C      -44.51460000     -31.13610000     -70.30220000
H      -46.64270000     -30.45670000     -69.97690000
H      -45.44120000     -34.25370000     -68.36070000
H      -42.50890000     -31.87900000     -70.37760000
H      -44.27820000     -30.42960000     -71.08850000
C      -42.74060000     -34.28190000     -68.90240000
H      -43.17280000     -35.12560000     -68.36920000
H      -41.98060000     -33.92690000     -68.24660000
C      -47.48210000     -32.47860000     -68.33860000
H      -47.48930000     -33.34670000     -67.69980000
H      -47.77090000     -31.47850000     -67.77610000
S      -41.86880000     -34.87410000     -70.36930000
S      -48.76960000     -32.64270000     -69.63660000
C      -42.85230000     -36.14860000     -71.22680000
H      -42.32350000     -36.34900000     -72.14570000
H      -42.83440000     -37.00620000     -70.51270000
C      -48.65790000     -34.28230000     -70.39060000
H      -49.43210000     -34.41200000     -71.17470000
H      -48.98930000     -35.02580000     -69.58940000
C      -47.34410000     -34.66770000     -71.05780000
H      -46.64490000     -34.85630000     -70.31850000
H      -47.50690000     -35.64930000     -71.52270000
C      -44.27620000     -35.72910000     -71.58110000
H      -44.82970000     -35.54050000     -70.66700000
H      -44.75340000     -36.65720000     -72.01970000
C      -44.33310000     -34.58400000     -72.52210000
C      -43.28420000     -34.10930000     -73.30720000
C      -45.50010000     -33.81690000     -72.77450000
H      -42.31160000     -34.60730000     -73.41380000
C      -45.43300000     -32.96320000     -73.85380000
C      -46.86330000     -33.79690000     -72.23750000
C      -47.65320000     -32.80910000     -72.79950000
S      -43.74380000     -32.87030000     -74.36330000
S      -46.83150000     -31.93020000     -74.07840000
H      -48.72580000     -32.77030000     -72.70510000
