40
Properties=species:S:1:pos:R:3 #=T CELL(abcABC):=T 1.889726e+02=T 90.00000=T Traj:=T positionsangstrom=T Step:=T 0=T Bead:=T pbc="F F F"
C      -45.73620000     -31.18270000     -69.87590000
C      -46.07080000     -32.29000000     -69.03170000
C      -45.02850000     -33.19100000     -68.71770000
C      -43.74910000     -33.20020000     -69.22290000
C      -43.44190000     -32.11140000     -70.02780000
C      -44.37470000     -31.10220000     -70.31310000
H      -46.54010000     -30.45730000     -70.09960000
H      -45.23390000     -33.96650000     -67.94940000
H      -42.43440000     -31.98720000     -70.39350000
H      -44.01260000     -30.21630000     -70.81970000
C      -42.66360000     -34.18590000     -68.87800000
H      -43.10870000     -35.06950000     -68.35350000
H      -41.88760000     -33.59590000     -68.28330000
C      -47.49230000     -32.45020000     -68.50240000
H      -47.56050000     -33.41220000     -67.99780000
H      -47.71920000     -31.76410000     -67.73570000
S      -41.68120000     -34.88390000     -70.38680000
S      -48.84010000     -32.43760000     -69.72710000
C      -42.86090000     -36.16760000     -71.01300000
H      -42.40920000     -36.87870000     -71.68560000
H      -42.98150000     -36.81790000     -70.19420000
C      -48.76900000     -34.20070000     -70.33310000
H      -49.62350000     -34.37190000     -70.91080000
H      -48.86900000     -34.87780000     -69.44050000
C      -47.43990000     -34.57240000     -70.92980000
H      -46.69590000     -34.67980000     -70.06670000
H      -47.58880000     -35.65160000     -71.29770000
C      -44.30210000     -35.72510000     -71.42280000
H      -44.87870000     -35.34920000     -70.56530000
H      -44.87400000     -36.59090000     -71.77360000
C      -44.41110000     -34.68760000     -72.55410000
C      -43.44440000     -34.46900000     -73.51890000
C      -45.57800000     -33.91110000     -72.70580000
H      -42.49120000     -35.00860000     -73.56480000
C      -45.42810000     -32.97980000     -73.71880000
C      -46.94700000     -33.74100000     -72.12310000
C      -47.70020000     -32.81930000     -72.78090000
S      -43.88410000     -33.04760000     -74.49280000
S      -46.79120000     -31.97420000     -74.09850000
H      -48.72300000     -32.59510000     -72.49820000
