40
Properties=species:S:1:pos:R:3 #=T CELL(abcABC):=T 1.889726e+02=T 90.00000=T Traj:=T positionsangstrom=T Step:=T 0=T Bead:=T pbc="F F F"
C      -45.61130000     -31.17710000     -69.90330000
C      -45.98110000     -32.24890000     -69.10810000
C      -44.97910000     -33.19390000     -68.83550000
C      -43.66630000     -33.10740000     -69.34070000
C      -43.36780000     -32.03260000     -70.23880000
C      -44.31180000     -31.04960000     -70.43310000
H      -46.31040000     -30.29660000     -69.97160000
H      -45.17200000     -34.04710000     -68.21810000
H      -42.32380000     -31.91970000     -70.57160000
H      -43.94650000     -30.16620000     -70.91970000
C      -42.63970000     -34.15950000     -68.91230000
H      -43.09950000     -35.02750000     -68.35760000
H      -41.87600000     -33.77410000     -68.20740000
C      -47.31570000     -32.35950000     -68.41610000
H      -47.42520000     -33.17110000     -67.76190000
H      -47.47330000     -31.43640000     -67.82460000
S      -41.79530000     -34.77730000     -70.39310000
S      -48.66920000     -32.29510000     -69.73670000
C      -42.87810000     -36.23090000     -70.88040000
H      -42.42220000     -36.61070000     -71.75730000
H      -42.81680000     -36.93040000     -70.05460000
C      -48.88480000     -33.98250000     -70.39960000
H      -49.53300000     -33.75650000     -71.22690000
H      -49.39800000     -34.75470000     -69.77320000
C      -47.50050000     -34.55850000     -70.93630000
H      -46.82530000     -34.67850000     -70.10020000
H      -47.68190000     -35.60540000     -71.36690000
C      -44.36950000     -35.70820000     -71.20550000
H      -44.87160000     -35.34810000     -70.28340000
H      -44.91050000     -36.61190000     -71.55880000
C      -44.41960000     -34.68450000     -72.36090000
C      -43.47140000     -34.53220000     -73.32290000
C      -45.64640000     -33.85890000     -72.62310000
H      -42.50340000     -34.98120000     -73.17920000
C      -45.44650000     -33.08870000     -73.76010000
C      -46.92790000     -33.66420000     -72.01150000
C      -47.68930000     -32.71340000     -72.70100000
S      -43.96630000     -33.46420000     -74.62290000
S      -46.90410000     -32.10340000     -74.06460000
H      -48.58450000     -32.32000000     -72.27330000
