40
Properties=species:S:1:pos:R:3 #=T CELL(abcABC):=T 1.889726e+02=T 90.00000=T Traj:=T positionsangstrom=T Step:=T 0=T Bead:=T pbc="F F F"
C      -45.32060000     -30.99900000     -70.65510000
C      -45.47330000     -31.64250000     -69.37720000
C      -44.52650000     -32.53660000     -68.87820000
C      -43.40670000     -32.73690000     -69.63580000
C      -43.21070000     -32.14170000     -70.94100000
C      -44.19590000     -31.25330000     -71.42800000
H      -46.09840000     -30.36780000     -70.98940000
H      -44.72920000     -33.15500000     -67.95740000
H      -42.39440000     -32.51060000     -71.54800000
H      -44.04780000     -30.68060000     -72.31000000
C      -42.37080000     -33.82200000     -69.19950000
H      -42.71440000     -34.41310000     -68.33650000
H      -41.50710000     -33.29500000     -68.81260000
C      -46.74620000     -31.46440000     -68.57080000
H      -46.85860000     -32.28980000     -67.80900000
H      -46.66300000     -30.60470000     -67.99530000
S      -41.87880000     -35.07180000     -70.41740000
S      -48.34000000     -31.36230000     -69.51200000
C      -43.26710000     -36.30130000     -70.34950000
H      -42.97640000     -37.05710000     -71.03950000
H      -43.37280000     -36.80010000     -69.35420000
C      -48.83340000     -33.12280000     -69.97770000
H      -49.66720000     -32.99510000     -70.69220000
H      -49.30290000     -33.57570000     -69.07360000
C      -47.75210000     -34.09380000     -70.49110000
H      -46.94800000     -33.98570000     -69.73510000
H      -48.01500000     -35.13290000     -70.35500000
C      -44.67560000     -35.81150000     -70.70400000
H      -45.03430000     -35.11590000     -69.94240000
H      -45.39320000     -36.66720000     -70.51280000
C      -44.87140000     -35.21530000     -72.07270000
C      -43.93090000     -35.29420000     -73.07880000
C      -45.88130000     -34.24400000     -72.37750000
H      -43.13300000     -36.07420000     -73.11240000
C      -45.69050000     -33.71350000     -73.68540000
C      -47.13830000     -33.71240000     -71.83470000
C      -47.69590000     -32.78620000     -72.71310000
S      -44.31260000     -34.35420000     -74.52630000
S      -46.83980000     -32.53960000     -74.18350000
H      -48.58970000     -32.21630000     -72.57510000
