40
Properties=species:S:1:pos:R:3 #=T CELL(abcABC):=T 1.889726e+02=T 90.00000=T Traj:=T positionsangstrom=T Step:=T 0=T Bead:=T pbc="F F F"
C      -44.80980000     -30.91290000     -71.34400000
C      -44.94400000     -31.11830000     -69.93600000
C      -44.12780000     -32.09430000     -69.34840000
C      -43.25750000     -32.96490000     -70.07980000
C      -43.18150000     -32.69170000     -71.49340000
C      -43.89310000     -31.66790000     -72.04460000
H      -45.46060000     -30.19240000     -71.85480000
H      -44.25530000     -32.32340000     -68.28510000
H      -42.61610000     -33.31790000     -72.17970000
H      -43.91330000     -31.51610000     -73.06260000
C      -42.48560000     -34.08950000     -69.38480000
H      -43.07640000     -34.48350000     -68.51270000
H      -41.49570000     -33.66550000     -69.02780000
C      -45.97970000     -30.34860000     -69.11750000
H      -45.93570000     -30.59570000     -68.05170000
H      -45.86900000     -29.22620000     -69.23300000
S      -42.18200000     -35.54080000     -70.44890000
S      -47.68240000     -30.69080000     -69.80580000
C      -43.67050000     -36.60840000     -70.17150000
H      -43.49820000     -37.49230000     -70.84470000
H      -43.63550000     -36.98840000     -69.17220000
C      -48.12630000     -32.45520000     -69.30350000
H      -49.24800000     -32.47680000     -69.47860000
H      -48.05210000     -32.57860000     -68.20070000
C      -47.26760000     -33.58930000     -69.92390000
H      -46.26700000     -33.64510000     -69.46740000
H      -47.91090000     -34.43650000     -69.62420000
C      -44.97550000     -35.90840000     -70.37610000
H      -44.89940000     -35.01760000     -69.67530000
H      -45.83860000     -36.51220000     -70.06890000
C      -45.21950000     -35.40890000     -71.79200000
C      -44.52340000     -35.72050000     -72.91350000
C      -46.06350000     -34.27610000     -72.13710000
H      -43.71600000     -36.46660000     -72.92160000
C      -46.06600000     -33.86420000     -73.44060000
C      -47.11930000     -33.57250000     -71.40170000
C      -47.85140000     -32.71380000     -72.16610000
S      -44.86260000     -34.82930000     -74.34180000
S      -47.27710000     -32.72380000     -73.90930000
H      -48.60560000     -32.02850000     -71.91340000
