40
Properties=species:S:1:pos:R:3 #=T CELL(abcABC):=T 1.889726e+02=T 90.00000=T Traj:=T positionsangstrom=T Step:=T 0=T Bead:=T pbc="F F F"
C      -44.71720000     -31.11580000     -71.44480000
C      -44.91240000     -31.35270000     -70.07730000
C      -44.02390000     -32.27370000     -69.47560000
C      -42.97060000     -32.86850000     -70.10600000
C      -42.75960000     -32.62140000     -71.48030000
C      -43.66200000     -31.75320000     -72.15930000
H      -45.35950000     -30.42790000     -72.00570000
H      -44.19220000     -32.50820000     -68.38750000
H      -41.86890000     -32.95190000     -72.04500000
H      -43.39270000     -31.29340000     -73.16470000
C      -42.17600000     -33.89800000     -69.26470000
H      -42.77090000     -34.06670000     -68.33050000
H      -41.12370000     -33.58810000     -69.22690000
C      -45.86160000     -30.59170000     -69.08260000
H      -45.90790000     -31.11170000     -68.02490000
H      -45.49380000     -29.54850000     -68.87660000
S      -41.90170000     -35.45700000     -70.26190000
S      -47.58190000     -30.43200000     -69.80390000
C      -43.56640000     -36.34320000     -70.12020000
H      -43.55280000     -37.17870000     -70.82770000
H      -43.57880000     -36.92100000     -69.20370000
C      -48.22480000     -32.13750000     -69.36510000
H      -49.27200000     -32.10510000     -69.71610000
H      -48.31600000     -32.01640000     -68.28670000
C      -47.38450000     -33.30670000     -69.88400000
H      -46.37890000     -33.33460000     -69.35210000
H      -47.81180000     -34.26050000     -69.57560000
C      -44.79320000     -35.44740000     -70.35110000
H      -44.62110000     -34.54880000     -69.76280000
H      -45.65510000     -36.00060000     -69.88330000
C      -45.14980000     -35.11390000     -71.73590000
C      -44.57110000     -35.76680000     -72.80960000
C      -46.21000000     -34.21650000     -72.06930000
H      -43.83670000     -36.65780000     -72.81110000
C      -46.32180000     -34.09650000     -73.50290000
C      -47.20910000     -33.37120000     -71.39100000
C      -48.08910000     -32.76960000     -72.26800000
S      -45.23430000     -35.20810000     -74.38610000
S      -47.71450000     -33.11860000     -73.97820000
H      -48.95950000     -32.18780000     -71.96800000
