40
Properties=species:S:1:pos:R:3 #=T CELL(abcABC):=T 1.889726e+02=T 90.00000=T Traj:=T positionsangstrom=T Step:=T 0=T Bead:=T pbc="F F F"
C      -43.54020000     -30.23550000     -70.32810000
C      -44.91950000     -30.35240000     -70.03300000
C      -45.88450000     -30.27390000     -71.03510000
C      -45.47690000     -30.13560000     -72.38040000
C      -44.12290000     -30.10390000     -72.65890000
C      -43.17960000     -30.13990000     -71.65360000
H      -42.81170000     -30.10170000     -69.54060000
H      -46.90710000     -30.46650000     -70.79690000
H      -43.81600000     -30.05830000     -73.70230000
H      -42.15570000     -30.21160000     -71.96500000
C      -46.41750000     -29.94810000     -73.55130000
H      -45.79080000     -29.38950000     -74.30700000
H      -47.22550000     -29.30330000     -73.22280000
C      -45.37470000     -30.50250000     -68.53310000
H      -44.44410000     -30.54150000     -67.96530000
H      -45.70590000     -29.46120000     -68.31310000
S      -47.23980000     -31.50840000     -74.06340000
S      -46.59470000     -31.74390000     -68.10180000
C      -45.85850000     -32.82370000     -73.81550000
H      -45.28340000     -33.28620000     -74.62150000
H      -45.09960000     -32.34330000     -73.16600000
C      -45.74250000     -33.28170000     -68.41010000
H      -46.24500000     -34.06040000     -67.86360000
H      -44.69240000     -33.32500000     -68.06120000
C      -45.72080000     -33.60770000     -69.89100000
H      -46.62540000     -33.39660000     -70.39330000
H      -44.99390000     -33.01320000     -70.35850000
C      -46.49590000     -34.07720000     -73.04900000
H      -47.27840000     -34.41430000     -73.63850000
H      -46.98900000     -33.72680000     -72.13590000
C      -45.63450000     -35.27130000     -72.72590000
C      -45.20540000     -36.12380000     -73.71410000
C      -45.25030000     -35.70780000     -71.39370000
H      -45.31140000     -36.07840000     -74.76140000
C      -44.63160000     -36.92210000     -71.40170000
C      -45.18440000     -35.00650000     -70.13230000
C      -44.49450000     -35.77740000     -69.24030000
S      -44.34670000     -37.56690000     -73.00130000
S      -43.93570000     -37.36350000     -69.83070000
H      -44.42900000     -35.62900000     -68.14930000
