40
Properties=species:S:1:pos:R:3 #=T CELL(abcABC):=T 1.889726e+02=T 90.00000=T Traj:=T positionsangstrom=T Step:=T 0=T Bead:=T pbc="F F F"
C      -44.20930000     -30.68510000     -71.21090000
C      -44.53270000     -31.18020000     -69.94100000
C      -43.77330000     -32.24800000     -69.39380000
C      -42.77880000     -32.85270000     -70.13610000
C      -42.49960000     -32.33530000     -71.45910000
C      -43.18980000     -31.25330000     -71.95340000
H      -44.74870000     -29.80870000     -71.41290000
H      -43.86080000     -32.41170000     -68.27560000
H      -41.71030000     -32.83690000     -71.94170000
H      -42.86330000     -30.78400000     -72.88090000
C      -41.93230000     -33.97760000     -69.56090000
H      -42.19900000     -34.13340000     -68.54890000
H      -40.88250000     -33.76320000     -69.78740000
C      -45.64990000     -30.52380000     -69.14740000
H      -45.78610000     -31.05560000     -68.18260000
H      -45.35220000     -29.52590000     -68.89500000
S      -42.21490000     -35.57600000     -70.39980000
S      -47.34080000     -30.25170000     -70.08150000
C      -43.75720000     -36.16960000     -69.66100000
H      -43.81650000     -37.23210000     -70.00790000
H      -43.76170000     -36.32840000     -68.58640000
C      -48.24090000     -31.83070000     -69.80410000
H      -49.18020000     -31.77580000     -70.41920000
H      -48.60280000     -31.69180000     -68.78410000
C      -47.50410000     -33.08280000     -70.06480000
H      -46.55860000     -33.02280000     -69.48400000
H      -47.96270000     -33.90450000     -69.56430000
C      -45.10760000     -35.43650000     -70.04250000
H      -45.23000000     -34.63430000     -69.39410000
H      -45.92480000     -36.12890000     -69.90710000
C      -45.25760000     -35.11620000     -71.56650000
C      -44.69400000     -35.89230000     -72.57230000
C      -46.40500000     -34.27310000     -72.01610000
H      -43.95790000     -36.60820000     -72.41800000
C      -46.50090000     -34.36030000     -73.39200000
C      -47.41320000     -33.38790000     -71.50510000
C      -48.26590000     -32.94540000     -72.51450000
S      -45.36470000     -35.46580000     -74.12970000
S      -47.86230000     -33.56670000     -74.08030000
H      -49.17230000     -32.35030000     -72.34520000
