40
Properties=species:S:1:pos:R:3 #=T CELL(abcABC):=T 1.889726e+02=T 90.00000=T Traj:=T positionsangstrom=T Step:=T 0=T Bead:=T pbc="F F F"
C      -44.11640000     -30.54310000     -71.36380000
C      -44.41550000     -30.91070000     -70.03160000
C      -43.70770000     -31.97270000     -69.43870000
C      -42.68970000     -32.61200000     -70.11640000
C      -42.38610000     -32.23110000     -71.41340000
C      -43.02690000     -31.14540000     -72.08840000
H      -44.80540000     -29.79220000     -71.84350000
H      -44.00240000     -32.56290000     -68.55150000
H      -41.48020000     -32.58180000     -72.00810000
H      -42.82970000     -30.78670000     -73.12130000
C      -41.90030000     -33.87710000     -69.60070000
H      -42.24000000     -33.91840000     -68.53200000
H      -40.83420000     -33.69780000     -69.61350000
C      -45.59850000     -30.18140000     -69.34200000
H      -45.69150000     -30.53230000     -68.33890000
H      -45.41230000     -29.10710000     -69.41610000
S      -42.33410000     -35.50520000     -70.33120000
S      -47.19280000     -30.30490000     -70.34540000
C      -43.85290000     -36.17730000     -69.52950000
H      -43.93170000     -37.19950000     -69.71390000
H      -43.72510000     -36.07400000     -68.43590000
C      -48.17350000     -31.67990000     -69.67460000
H      -49.13050000     -31.65010000     -70.11420000
H      -48.14520000     -31.76340000     -68.57060000
C      -47.48090000     -33.06640000     -70.05300000
H      -46.43520000     -32.97260000     -69.81820000
H      -47.83580000     -33.88470000     -69.37910000
C      -45.09380000     -35.41560000     -69.94630000
H      -45.07430000     -34.33290000     -69.54430000
H      -45.99320000     -35.74390000     -69.41880000
C      -45.54350000     -35.33730000     -71.41590000
C      -45.02550000     -36.20810000     -72.33880000
C      -46.42360000     -34.34900000     -72.00920000
H      -44.23050000     -36.96530000     -72.09340000
C      -46.55160000     -34.58810000     -73.42270000
C      -47.40890000     -33.41550000     -71.49850000
C      -48.21060000     -32.91550000     -72.50860000
S      -45.59870000     -35.94910000     -73.97290000
S      -47.72040000     -33.51670000     -74.09860000
H      -49.02480000     -32.22800000     -72.29670000
