40
Properties=species:S:1:pos:R:3 #=T CELL(abcABC):=T 1.889726e+02=T 90.00000=T Traj:=T positionsangstrom=T Step:=T 0=T Bead:=T pbc="F F F"
C      -48.36550000     -33.81520000     -73.53350000
C      -47.63590000     -34.82430000     -72.87710000
C      -46.40700000     -35.19840000     -73.48770000
C      -45.82200000     -34.58090000     -74.66080000
C      -46.67460000     -33.62220000     -75.33310000
C      -47.94800000     -33.38050000     -74.80590000
H      -49.31950000     -33.51500000     -73.18140000
H      -45.74630000     -35.82930000     -72.88190000
H      -46.33310000     -33.31720000     -76.27520000
H      -48.63770000     -32.72110000     -75.33670000
C      -44.53460000     -35.03350000     -75.22080000
H      -44.61580000     -35.11670000     -76.32160000
H      -44.32030000     -36.07280000     -74.83030000
C      -47.97530000     -35.44890000     -71.56600000
H      -48.56750000     -36.39370000     -71.76470000
H      -47.07460000     -35.79180000     -70.98800000
S      -43.16280000     -33.91250000     -74.93660000
S      -49.09730000     -34.38580000     -70.43510000
C      -42.99100000     -33.82590000     -73.04640000
H      -42.88980000     -34.85720000     -72.73410000
H      -41.97160000     -33.37450000     -72.85640000
C      -47.69260000     -33.66280000     -69.48050000
H      -47.01160000     -34.50610000     -69.18600000
H      -48.12010000     -33.37100000     -68.52570000
C      -46.80890000     -32.68100000     -70.15350000
H      -46.42230000     -33.21140000     -71.00180000
H      -47.20820000     -31.70590000     -70.43580000
C      -44.10670000     -32.92900000     -72.23210000
H      -45.05210000     -33.45180000     -72.17240000
H      -44.36160000     -31.94630000     -72.63020000
C      -43.55810000     -32.66690000     -70.83180000
C      -42.22680000     -32.57030000     -70.55560000
C      -44.30470000     -32.30860000     -69.57600000
H      -41.40370000     -32.86170000     -71.14840000
C      -43.48850000     -32.11380000     -68.46050000
C      -45.71910000     -32.33590000     -69.14570000
C      -45.84460000     -32.12710000     -67.76520000
S      -41.80470000     -32.24330000     -68.85650000
S      -44.37350000     -31.84720000     -66.95570000
H      -46.89730000     -32.15490000     -67.32350000
