40
Properties=species:S:1:pos:R:3 #=T CELL(abcABC):=T 1.889726e+02=T 90.00000=T Traj:=T positionsangstrom=T Step:=T 0=T Bead:=T pbc="F F F"
C      -48.38480000     -33.98350000     -73.44030000
C      -47.51490000     -34.95660000     -72.87850000
C      -46.28830000     -35.12140000     -73.48990000
C      -45.83520000     -34.36440000     -74.62320000
C      -46.67920000     -33.39270000     -75.15690000
C      -47.96520000     -33.21060000     -74.49060000
H      -49.36780000     -33.80970000     -73.00860000
H      -45.68040000     -35.95050000     -73.16430000
H      -46.36990000     -32.81090000     -76.06490000
H      -48.59440000     -32.38270000     -74.73060000
C      -44.61910000     -34.87320000     -75.33930000
H      -44.65280000     -34.76750000     -76.40610000
H      -44.39310000     -35.95660000     -75.19580000
C      -47.88190000     -35.79630000     -71.60690000
H      -48.41500000     -36.69890000     -71.87120000
H      -47.11740000     -36.03360000     -70.94390000
S      -43.18710000     -33.78660000     -74.87820000
S      -48.96210000     -34.80260000     -70.49250000
C      -42.89800000     -33.54940000     -73.09660000
H      -42.61710000     -34.48590000     -72.65490000
H      -42.06570000     -32.86740000     -73.10880000
C      -47.96930000     -33.67460000     -69.36240000
H      -47.48870000     -34.29570000     -68.59330000
H      -48.81880000     -33.10880000     -68.91300000
C      -47.02340000     -32.71270000     -70.04130000
H      -46.72370000     -33.21060000     -70.96050000
H      -47.55890000     -31.83540000     -70.41580000
C      -44.05930000     -32.97440000     -72.15010000
H      -45.00610000     -33.56780000     -72.04920000
H      -44.26690000     -31.97330000     -72.59210000
C      -43.54220000     -32.75610000     -70.76660000
C      -42.18280000     -32.70220000     -70.58210000
C      -44.33740000     -32.43030000     -69.62460000
H      -41.33710000     -32.79940000     -71.32180000
C      -43.51170000     -32.09590000     -68.56070000
C      -45.75060000     -32.34250000     -69.23340000
C      -45.89180000     -31.90400000     -67.90400000
S      -41.80840000     -32.30170000     -68.86940000
S      -44.35020000     -31.66580000     -67.09660000
H      -46.87310000     -31.68750000     -67.31960000
