40
Properties=species:S:1:pos:R:3 #=T CELL(abcABC):=T 1.889726e+02=T 90.00000=T Traj:=T positionsangstrom=T Step:=T 0=T Bead:=T pbc="F F F"
C      -44.02680000     -30.64700000     -71.72300000
C      -44.49330000     -30.84330000     -70.40200000
C      -43.87800000     -31.91490000     -69.71920000
C      -42.94540000     -32.76920000     -70.28140000
C      -42.45210000     -32.57170000     -71.59710000
C      -43.09050000     -31.50630000     -72.33160000
H      -44.29770000     -29.72900000     -72.27100000
H      -44.24100000     -32.24430000     -68.71780000
H      -41.79740000     -33.20790000     -72.23650000
H      -42.76180000     -31.30520000     -73.33960000
C      -42.28790000     -33.90320000     -69.45500000
H      -42.68130000     -33.96160000     -68.43470000
H      -41.22300000     -33.66440000     -69.15380000
C      -45.47410000     -29.91180000     -69.77790000
H      -45.53350000     -30.11670000     -68.67020000
H      -45.10330000     -28.83350000     -69.76890000
S      -42.27330000     -35.51370000     -70.26430000
S      -47.07360000     -29.82270000     -70.49280000
C      -43.76590000     -36.24970000     -69.40810000
H      -43.94680000     -37.26140000     -69.67740000
H      -43.55320000     -36.05880000     -68.33210000
C      -47.93430000     -31.34030000     -69.85520000
H      -48.92970000     -31.37510000     -70.22970000
H      -48.22000000     -31.09370000     -68.77240000
C      -47.34320000     -32.72290000     -70.01850000
H      -46.37270000     -32.82250000     -69.46810000
H      -48.01610000     -33.52720000     -69.58580000
C      -45.17340000     -35.49820000     -69.70110000
H      -45.16940000     -34.47150000     -69.12610000
H      -45.99200000     -36.09870000     -69.17880000
C      -45.62870000     -35.51490000     -71.18160000
C      -45.31350000     -36.58100000     -72.04470000
C      -46.43130000     -34.47480000     -71.79520000
H      -44.57150000     -37.40470000     -71.89570000
C      -46.66950000     -34.76900000     -73.10010000
C      -47.04520000     -33.18090000     -71.47450000
C      -47.71310000     -32.66050000     -72.54980000
S      -45.89600000     -36.22610000     -73.74220000
S      -47.58350000     -33.57730000     -73.99710000
H      -48.31460000     -31.77680000     -72.52040000
