40
Properties=species:S:1:pos:R:3 #=T CELL(abcABC):=T 1.889726e+02=T 90.00000=T Traj:=T positionsangstrom=T Step:=T 0=T Bead:=T pbc="F F F"
C      -44.08210000     -30.78400000     -71.98610000
C      -44.32730000     -30.76330000     -70.58710000
C      -43.76790000     -31.77470000     -69.77270000
C      -42.88140000     -32.72740000     -70.36230000
C      -42.65160000     -32.67900000     -71.77480000
C      -43.21940000     -31.70170000     -72.54980000
H      -44.44480000     -29.95130000     -72.54410000
H      -43.87390000     -31.75240000     -68.67070000
H      -42.11700000     -33.52130000     -72.17880000
H      -43.07890000     -31.60590000     -73.65110000
C      -42.32400000     -33.84080000     -69.44830000
H      -42.75790000     -33.72710000     -68.39740000
H      -41.25970000     -33.71530000     -69.41380000
C      -45.16570000     -29.64150000     -69.97230000
H      -45.23200000     -29.69670000     -68.83280000
H      -44.81690000     -28.63090000     -70.27490000
S      -42.65450000     -35.57640000     -70.05400000
S      -46.92040000     -29.80220000     -70.64970000
C      -44.12620000     -36.13390000     -69.15750000
H      -44.21940000     -37.29920000     -69.19280000
H      -43.95950000     -36.02060000     -68.08190000
C      -47.63470000     -31.24440000     -69.63830000
H      -48.75380000     -31.12730000     -69.71040000
H      -47.36370000     -31.13640000     -68.53060000
C      -47.15660000     -32.66780000     -70.08980000
H      -46.15390000     -32.74490000     -69.70470000
H      -47.80910000     -33.32100000     -69.41880000
C      -45.46940000     -35.44890000     -69.50430000
H      -45.28070000     -34.46210000     -69.23180000
H      -46.34730000     -35.97750000     -69.05980000
C      -45.75970000     -35.50860000     -71.04390000
C      -45.33820000     -36.56790000     -71.87890000
C      -46.44600000     -34.51670000     -71.81060000
H      -44.94030000     -37.54610000     -71.54120000
C      -46.64110000     -34.81320000     -73.12100000
C      -47.15010000     -33.26170000     -71.49780000
C      -47.62590000     -32.62740000     -72.58800000
S      -45.76330000     -36.29030000     -73.56810000
S      -47.46340000     -33.64020000     -74.09720000
H      -47.89960000     -31.58550000     -72.61930000
