40
Properties=species:S:1:pos:R:3 #=T CELL(abcABC):=T 1.889726e+02=T 90.00000=T Traj:=T positionsangstrom=T Step:=T 0=T Bead:=T pbc="F F F"
C      -44.05120000     -30.96520000     -72.17930000
C      -44.29320000     -30.85140000     -70.76550000
C      -43.73310000     -31.83650000     -69.90680000
C      -42.96050000     -32.90820000     -70.41390000
C      -42.70290000     -32.97770000     -71.78010000
C      -43.27040000     -32.00950000     -72.63870000
H      -44.45600000     -30.21480000     -72.83450000
H      -44.16630000     -31.83530000     -68.88130000
H      -42.15160000     -33.77020000     -72.19310000
H      -43.03350000     -32.10260000     -73.66920000
C      -42.45080000     -33.88720000     -69.48890000
H      -42.74300000     -33.69020000     -68.43520000
H      -41.35420000     -33.88690000     -69.34810000
C      -45.07240000     -29.76940000     -70.14600000
H      -45.03560000     -29.74040000     -69.07850000
H      -44.67240000     -28.81140000     -70.41950000
S      -42.75790000     -35.61450000     -70.10130000
S      -46.86040000     -29.63400000     -70.60160000
C      -44.19220000     -36.09650000     -68.98220000
H      -44.18950000     -37.11200000     -69.22640000
H      -43.90860000     -35.86410000     -67.98840000
C      -47.79140000     -31.10300000     -70.01680000
H      -48.70010000     -31.16150000     -70.59600000
H      -48.24540000     -30.89370000     -69.03200000
C      -47.06990000     -32.46450000     -69.99280000
H      -46.04740000     -32.25240000     -69.69350000
H      -47.51300000     -33.12320000     -69.24290000
C      -45.51630000     -35.51540000     -69.46170000
H      -45.69810000     -34.49650000     -69.05340000
H      -46.35830000     -36.13290000     -68.97320000
C      -45.73030000     -35.50230000     -70.94470000
C      -45.30790000     -36.54680000     -71.76710000
C      -46.40580000     -34.42380000     -71.71030000
H      -44.77100000     -37.35830000     -71.33670000
C      -46.53870000     -34.72620000     -73.05920000
C      -47.10240000     -33.15060000     -71.36390000
C      -47.60080000     -32.62130000     -72.50980000
S      -45.74120000     -36.26720000     -73.48230000
S      -47.40470000     -33.53870000     -74.00350000
H      -48.18260000     -31.70020000     -72.69070000
