40
Properties=species:S:1:pos:R:3 #=T CELL(abcABC):=T 1.889726e+02=T 90.00000=T Traj:=T positionsangstrom=T Step:=T 0=T Bead:=T pbc="F F F"
C      -44.12310000     -31.45960000     -72.42650000
C      -44.17770000     -31.18660000     -71.06030000
C      -43.51250000     -32.00840000     -70.15360000
C      -42.88800000     -33.20800000     -70.58120000
C      -42.78130000     -33.43440000     -71.93880000
C      -43.42420000     -32.59210000     -72.87560000
H      -44.71120000     -30.86060000     -73.13300000
H      -43.47050000     -31.59300000     -69.16250000
H      -42.22260000     -34.30450000     -72.34860000
H      -43.35990000     -32.77010000     -73.94370000
C      -42.18640000     -34.00270000     -69.52200000
H      -42.53630000     -33.65420000     -68.51710000
H      -41.15150000     -33.66620000     -69.49440000
C      -44.84450000     -29.94720000     -70.51610000
H      -44.96420000     -29.96350000     -69.39710000
H      -44.26210000     -29.11630000     -70.77610000
S      -42.39870000     -35.75190000     -69.70780000
S      -46.54830000     -29.82290000     -71.23800000
C      -44.15100000     -36.01760000     -68.98590000
H      -44.52710000     -36.99270000     -69.39300000
H      -44.04390000     -36.09680000     -67.91100000
C      -47.53050000     -30.72720000     -69.95430000
H      -48.54140000     -30.56480000     -70.17100000
H      -47.28730000     -30.32700000     -68.94360000
C      -47.21270000     -32.20010000     -69.92440000
H      -46.22310000     -32.36550000     -69.50640000
H      -48.04550000     -32.63820000     -69.27180000
C      -45.22950000     -34.98960000     -69.41720000
H      -44.77900000     -33.96010000     -69.26670000
H      -45.98840000     -35.08920000     -68.64690000
C      -45.74280000     -35.06100000     -70.78100000
C      -45.35720000     -36.15000000     -71.57310000
C      -46.48960000     -34.09800000     -71.54180000
H      -44.68020000     -36.87970000     -71.20130000
C      -46.69970000     -34.49500000     -72.87920000
C      -47.24320000     -32.89920000     -71.28960000
C      -48.04870000     -32.56310000     -72.32540000
S      -46.10120000     -36.10170000     -73.15650000
S      -47.83230000     -33.55090000     -73.82500000
H      -48.49140000     -31.56070000     -72.55710000
