40
Properties=species:S:1:pos:R:3 #=T CELL(abcABC):=T 1.889726e+02=T 90.00000=T Traj:=T positionsangstrom=T Step:=T 0=T Bead:=T pbc="F F F"
C      -44.52770000     -31.31720000     -72.58840000
C      -44.33340000     -30.93660000     -71.26200000
C      -43.57650000     -31.79610000     -70.44750000
C      -42.99080000     -33.00710000     -70.85330000
C      -43.17640000     -33.36440000     -72.19700000
C      -43.90250000     -32.55360000     -73.05270000
H      -45.21960000     -30.80250000     -73.28610000
H      -43.16500000     -31.51410000     -69.47890000
H      -42.58450000     -34.15210000     -72.62330000
H      -44.06210000     -32.87600000     -74.09300000
C      -42.00010000     -33.72160000     -69.92170000
H      -42.02040000     -33.42630000     -68.88110000
H      -40.96500000     -33.58550000     -70.35370000
C      -44.80200000     -29.63870000     -70.72600000
H      -44.49780000     -29.48450000     -69.73480000
H      -44.27600000     -28.83140000     -71.27660000
S      -42.26890000     -35.56140000     -69.92050000
S      -46.63400000     -29.54330000     -70.97600000
C      -43.82500000     -35.77530000     -68.88090000
H      -44.07290000     -36.83690000     -68.95920000
H      -43.51410000     -35.54750000     -67.87720000
C      -47.40200000     -30.83880000     -69.98600000
H      -48.51940000     -30.79380000     -70.22890000
H      -47.49990000     -30.49550000     -68.94760000
C      -46.94100000     -32.26060000     -69.85690000
H      -45.89230000     -32.38770000     -69.52720000
H      -47.40360000     -32.68110000     -69.01730000
C      -45.12550000     -34.95900000     -69.33290000
H      -44.93200000     -33.85230000     -69.24370000
H      -45.93950000     -35.08100000     -68.57580000
C      -45.72370000     -35.34170000     -70.64270000
C      -45.51500000     -36.48200000     -71.38740000
C      -46.50530000     -34.42130000     -71.40990000
H      -44.88900000     -37.34630000     -70.97350000
C      -46.74180000     -34.84060000     -72.73430000
C      -47.14900000     -33.09540000     -71.16350000
C      -47.73310000     -32.59440000     -72.27710000
S      -46.20140000     -36.49400000     -72.99090000
S      -47.70290000     -33.69730000     -73.62110000
H      -48.25450000     -31.66250000     -72.27670000
