40
Properties=species:S:1:pos:R:3 #=T CELL(abcABC):=T 1.889726e+02=T 90.00000=T Traj:=T positionsangstrom=T Step:=T 0=T Bead:=T pbc="F F F"
C      -43.64790000     -30.31880000     -70.30470000
C      -44.98580000     -30.16030000     -70.02330000
C      -45.98080000     -30.11870000     -70.97280000
C      -45.55150000     -30.08290000     -72.29180000
C      -44.21350000     -30.16300000     -72.64580000
C      -43.29500000     -30.27750000     -71.62390000
H      -42.90290000     -30.63240000     -69.57890000
H      -47.02460000     -29.93820000     -70.68620000
H      -43.91460000     -30.31050000     -73.69300000
H      -42.21350000     -30.30930000     -71.91520000
C      -46.62560000     -30.10590000     -73.40610000
H      -46.24330000     -29.76250000     -74.39060000
H      -47.51150000     -29.40360000     -73.23200000
C      -45.37140000     -30.27500000     -68.50970000
H      -44.45070000     -30.30910000     -67.85300000
H      -45.84130000     -29.32380000     -68.19010000
S      -47.35300000     -31.72510000     -73.71720000
S      -46.63770000     -31.59890000     -68.11900000
C      -46.02540000     -32.98750000     -73.46210000
H      -45.22760000     -33.10600000     -74.19320000
H      -45.51820000     -32.67750000     -72.53200000
C      -45.77490000     -33.17980000     -68.55920000
H      -46.05570000     -33.89710000     -67.82370000
H      -44.68090000     -32.97050000     -68.51420000
C      -46.11400000     -33.78910000     -69.93850000
H      -47.14120000     -33.87730000     -70.11030000
H      -45.84460000     -33.09090000     -70.67830000
C      -46.67750000     -34.32480000     -73.24380000
H      -47.24770000     -34.70980000     -74.16490000
H      -47.39360000     -34.13570000     -72.48550000
C      -45.67160000     -35.42770000     -72.81460000
C      -45.23640000     -36.38400000     -73.77310000
C      -45.09660000     -35.61520000     -71.54020000
H      -45.66310000     -36.41380000     -74.77000000
C      -44.24380000     -36.75090000     -71.52130000
C      -45.30150000     -35.07740000     -70.26340000
C      -44.49890000     -35.74350000     -69.31270000
S      -43.95040000     -37.50870000     -73.09160000
S      -43.62480000     -37.12160000     -69.96730000
H      -44.42260000     -35.35320000     -68.30240000
