40
Properties=species:S:1:pos:R:3 #=T CELL(abcABC):=T 1.889726e+02=T 90.00000=T Traj:=T positionsangstrom=T Step:=T 0=T Bead:=T pbc="F F F"
C      -44.63220000     -31.32910000     -72.76280000
C      -44.29840000     -30.90460000     -71.47490000
C      -43.46740000     -31.78100000     -70.68270000
C      -42.87240000     -32.92670000     -71.19670000
C      -43.21100000     -33.25370000     -72.53050000
C      -44.11370000     -32.47550000     -73.26350000
H      -45.38950000     -30.70360000     -73.24960000
H      -43.33150000     -31.41400000     -69.69410000
H      -42.85270000     -34.20910000     -72.85540000
H      -44.34990000     -32.75620000     -74.32930000
C      -41.93890000     -33.77370000     -70.33920000
H      -41.83070000     -33.32250000     -69.32060000
H      -40.92610000     -33.76330000     -70.71990000
C      -44.92670000     -29.63530000     -70.89790000
H      -44.51140000     -29.36830000     -69.90640000
H      -44.66210000     -28.87470000     -71.57420000
S      -42.53940000     -35.59740000     -70.31410000
S      -46.75060000     -29.64930000     -71.01250000
C      -43.62330000     -35.71210000     -68.85640000
H      -43.92500000     -36.73930000     -68.82970000
H      -43.14100000     -35.50620000     -67.91640000
C      -47.45980000     -30.82720000     -69.73730000
H      -48.54910000     -30.88180000     -69.88990000
H      -47.31850000     -30.40120000     -68.73390000
C      -46.72920000     -32.18140000     -69.74030000
H      -45.67780000     -31.96060000     -69.69670000
H      -46.96080000     -32.79210000     -68.85460000
C      -44.93900000     -34.90880000     -69.16720000
H      -44.71120000     -33.85460000     -68.99920000
H      -45.47030000     -35.08460000     -68.23000000
C      -45.61800000     -35.22920000     -70.46290000
C      -45.42570000     -36.45830000     -71.10850000
C      -46.43230000     -34.36150000     -71.24130000
H      -44.74640000     -37.20380000     -70.69590000
C      -46.74640000     -34.91970000     -72.47190000
C      -46.98620000     -33.03960000     -70.99860000
C      -47.68770000     -32.57970000     -72.05460000
S      -46.13900000     -36.56910000     -72.68780000
S      -47.74370000     -33.75320000     -73.38210000
H      -48.00300000     -31.54870000     -72.23860000
