40
Properties=species:S:1:pos:R:3 #=T CELL(abcABC):=T 1.889726e+02=T 90.00000=T Traj:=T positionsangstrom=T Step:=T 0=T Bead:=T pbc="F F F"
C      -44.64130000     -31.27900000     -72.94380000
C      -44.44680000     -30.92950000     -71.62180000
C      -43.52740000     -31.71610000     -70.85960000
C      -42.94600000     -32.91990000     -71.31490000
C      -43.05950000     -33.17310000     -72.71230000
C      -43.96290000     -32.35670000     -73.48670000
H      -45.29520000     -30.65450000     -73.56540000
H      -43.33840000     -31.43620000     -69.82070000
H      -42.55410000     -34.05490000     -73.15870000
H      -44.02950000     -32.47680000     -74.54990000
C      -41.97300000     -33.72280000     -70.54220000
H      -41.89020000     -33.37970000     -69.54550000
H      -40.94280000     -33.60270000     -71.00080000
C      -45.04950000     -29.63470000     -71.08900000
H      -44.66170000     -29.38880000     -70.07340000
H      -44.78660000     -28.78750000     -71.79450000
S      -42.22420000     -35.53770000     -70.34340000
S      -46.88790000     -29.55790000     -71.06140000
C      -43.39280000     -35.74970000     -68.96080000
H      -43.65580000     -36.77570000     -68.96030000
H      -42.90440000     -35.56630000     -68.00090000
C      -47.40830000     -30.80670000     -69.83670000
H      -48.53880000     -30.97210000     -69.98270000
H      -47.48950000     -30.36310000     -68.84510000
C      -46.74840000     -32.16970000     -69.77260000
H      -45.68660000     -32.00540000     -69.44130000
H      -47.22630000     -32.66890000     -68.88660000
C      -44.70390000     -34.91860000     -69.04800000
H      -44.59510000     -33.83650000     -69.03190000
H      -45.31180000     -35.07660000     -68.12940000
C      -45.46100000     -35.27030000     -70.37630000
C      -45.30130000     -36.42710000     -71.05650000
C      -46.37590000     -34.38800000     -71.09260000
H      -44.72610000     -37.19950000     -70.66860000
C      -46.86430000     -34.96730000     -72.21820000
C      -46.90700000     -33.01800000     -70.96240000
C      -47.81470000     -32.69790000     -71.95580000
S      -46.34890000     -36.56580000     -72.44560000
S      -47.92280000     -33.97980000     -73.16680000
H      -48.25670000     -31.65420000     -72.06260000
