40
Properties=species:S:1:pos:R:3 #=T CELL(abcABC):=T 1.889726e+02=T 90.00000=T Traj:=T positionsangstrom=T Step:=T 0=T Bead:=T pbc="F F F"
C      -44.64140000     -31.33840000     -72.88590000
C      -44.28350000     -30.91190000     -71.59700000
C      -43.47730000     -31.66500000     -70.79850000
C      -42.81640000     -32.79630000     -71.36600000
C      -43.15880000     -33.22440000     -72.67050000
C      -44.13190000     -32.55320000     -73.36060000
H      -45.45240000     -30.78840000     -73.33060000
H      -43.22270000     -31.29490000     -69.78060000
H      -42.73220000     -34.18180000     -72.99830000
H      -44.42810000     -32.99160000     -74.24410000
C      -41.86240000     -33.48500000     -70.47220000
H      -41.80090000     -33.11410000     -69.43410000
H      -40.85610000     -33.41270000     -70.94600000
C      -45.05190000     -29.72180000     -70.94320000
H      -44.79760000     -29.62220000     -69.90850000
H      -44.74360000     -28.77020000     -71.38240000
S      -42.17970000     -35.35290000     -70.40280000
S      -46.88270000     -29.83780000     -71.22190000
C      -43.37800000     -35.37260000     -68.92150000
H      -43.49360000     -36.48640000     -68.62330000
H      -42.79990000     -34.93180000     -68.13030000
C      -47.34890000     -30.77440000     -69.73290000
H      -48.40820000     -30.75020000     -69.61740000
H      -46.95260000     -30.20750000     -68.86600000
C      -46.71900000     -32.16440000     -69.72950000
H      -45.65040000     -32.00120000     -69.60020000
H      -47.05090000     -32.75450000     -68.84160000
C      -44.69900000     -34.74630000     -69.24270000
H      -44.49160000     -33.66320000     -69.41190000
H      -45.38400000     -34.74960000     -68.35600000
C      -45.54070000     -35.30600000     -70.37530000
C      -45.34970000     -36.48350000     -70.99370000
C      -46.42540000     -34.40260000     -71.08690000
H      -44.59650000     -37.21830000     -70.73650000
C      -46.94510000     -35.02590000     -72.21290000
C      -46.92450000     -33.04520000     -70.94980000
C      -47.81510000     -32.71500000     -71.97260000
S      -46.33490000     -36.68810000     -72.46420000
S      -48.00470000     -33.94650000     -73.17290000
H      -48.62460000     -32.02580000     -71.94640000
