40
Properties=species:S:1:pos:R:3 #=T CELL(abcABC):=T 1.889726e+02=T 90.00000=T Traj:=T positionsangstrom=T Step:=T 0=T Bead:=T pbc="F F F"
C      -44.75100000     -31.62880000     -72.98050000
C      -44.44870000     -31.10500000     -71.69340000
C      -43.47160000     -31.80050000     -70.98760000
C      -42.87950000     -33.02210000     -71.40880000
C      -43.09470000     -33.43600000     -72.73670000
C      -44.07630000     -32.71020000     -73.48480000
H      -45.40620000     -31.07920000     -73.66160000
H      -43.08870000     -31.45710000     -69.98530000
H      -42.58820000     -34.29060000     -73.20700000
H      -44.34990000     -32.84690000     -74.59510000
C      -41.78960000     -33.62820000     -70.52120000
H      -41.72720000     -33.02830000     -69.59190000
H      -40.87820000     -33.63070000     -71.13920000
C      -44.97410000     -29.76360000     -71.35530000
H      -44.67160000     -29.44890000     -70.37220000
H      -44.66320000     -28.97590000     -72.08140000
S      -42.01040000     -35.41520000     -70.19650000
S      -46.77740000     -29.62860000     -71.53220000
C      -43.24040000     -35.34090000     -68.84920000
H      -43.51500000     -36.39860000     -68.61450000
H      -42.69190000     -34.96380000     -67.98660000
C      -47.38840000     -30.57200000     -70.06450000
H      -48.48030000     -30.67790000     -70.16100000
H      -47.25580000     -29.94920000     -69.14330000
C      -46.78920000     -31.99450000     -69.76140000
H      -45.79300000     -32.01990000     -69.47320000
H      -47.27830000     -32.32780000     -68.83530000
C      -44.65720000     -34.60780000     -69.12230000
H      -44.47850000     -33.53320000     -68.98700000
H      -45.22980000     -34.89690000     -68.26740000
C      -45.33230000     -34.98890000     -70.43300000
C      -45.07650000     -36.16580000     -71.03900000
C      -46.37460000     -34.17730000     -71.09710000
H      -44.53270000     -37.01000000     -70.63630000
C      -46.93570000     -34.93660000     -72.11780000
C      -47.12240000     -33.01750000     -70.80270000
C      -48.31160000     -33.01180000     -71.56090000
S      -46.14710000     -36.40900000     -72.49000000
S      -48.41010000     -34.31630000     -72.70600000
H      -48.94720000     -32.13050000     -71.74340000
