40
Properties=species:S:1:pos:R:3 #=T CELL(abcABC):=T 1.889726e+02=T 90.00000=T Traj:=T positionsangstrom=T Step:=T 0=T Bead:=T pbc="F F F"
C      -44.61840000     -31.69070000     -73.15010000
C      -44.29860000     -31.12070000     -71.92840000
C      -43.33590000     -31.72310000     -71.08950000
C      -42.63230000     -32.90360000     -71.43910000
C      -43.09900000     -33.52550000     -72.60760000
C      -44.00700000     -32.92050000     -73.47820000
H      -45.44490000     -31.41030000     -73.74590000
H      -43.16000000     -31.15230000     -70.15140000
H      -42.60650000     -34.49640000     -72.78850000
H      -44.42860000     -33.33840000     -74.40770000
C      -41.58420000     -33.63090000     -70.58070000
H      -41.38390000     -33.03730000     -69.68760000
H      -40.64070000     -33.57890000     -71.11730000
C      -45.02330000     -29.90080000     -71.42660000
H      -44.72750000     -29.88260000     -70.35540000
H      -44.72660000     -28.93930000     -71.86240000
S      -42.08920000     -35.42020000     -70.16890000
S      -46.85430000     -29.97280000     -71.67400000
C      -43.41810000     -35.38770000     -68.87550000
H      -43.74850000     -36.47370000     -68.86520000
H      -42.97050000     -35.18440000     -67.91890000
C      -47.34650000     -30.59800000     -70.00940000
H      -48.41890000     -30.69710000     -70.07140000
H      -46.94450000     -29.82260000     -69.32780000
C      -46.81520000     -31.98090000     -69.59820000
H      -45.70370000     -31.94490000     -69.35790000
H      -47.35370000     -32.26960000     -68.67340000
C      -44.51990000     -34.37360000     -69.21690000
H      -44.05510000     -33.44100000     -69.47850000
H      -45.25530000     -34.25600000     -68.35540000
C      -45.34400000     -34.87920000     -70.39710000
C      -45.04990000     -36.02030000     -71.07390000
C      -46.56850000     -34.21100000     -70.90940000
H      -44.18160000     -36.55680000     -70.96530000
C      -47.08540000     -34.91840000     -71.95250000
C      -47.20000000     -32.96180000     -70.67560000
C      -48.30370000     -32.83410000     -71.52080000
S      -46.13070000     -36.33120000     -72.42070000
S      -48.46510000     -34.16990000     -72.69110000
H      -49.17000000     -32.10550000     -71.42950000
