40
Properties=species:S:1:pos:R:3 #=T CELL(abcABC):=T 1.889726e+02=T 90.00000=T Traj:=T positionsangstrom=T Step:=T 0=T Bead:=T pbc="F F F"
C      -43.42910000     -36.34760000     -73.02940000
C      -44.67060000     -35.84070000     -73.47720000
C      -45.85400000     -36.22410000     -72.78460000
C      -45.82870000     -36.85710000     -71.56000000
C      -44.62340000     -37.31240000     -71.05490000
C      -43.45290000     -37.11430000     -71.86080000
H      -42.54080000     -36.08130000     -73.54860000
H      -46.82720000     -35.97550000     -73.13750000
H      -44.48140000     -37.82290000     -70.11360000
H      -42.51180000     -37.53330000     -71.53500000
C      -47.18900000     -37.01750000     -70.84060000
H      -47.03550000     -37.41680000     -69.80700000
H      -47.80430000     -37.80300000     -71.30170000
C      -44.80550000     -35.00400000     -74.71360000
H      -43.77140000     -34.69970000     -74.94650000
H      -45.13840000     -35.51340000     -75.59470000
S      -48.29680000     -35.55460000     -70.76130000
S      -45.83530000     -33.64340000     -74.45800000
C      -47.30620000     -34.33430000     -69.79170000
H      -47.99280000     -33.65490000     -69.29750000
H      -46.65690000     -34.82520000     -69.08520000
C      -44.67100000     -32.52260000     -73.50870000
H      -43.74820000     -32.24420000     -74.10800000
H      -44.29580000     -33.10600000     -72.63440000
C      -45.29940000     -31.21700000     -72.99360000
H      -45.30430000     -30.38030000     -73.65570000
H      -46.37320000     -31.35010000     -72.79250000
C      -46.44010000     -33.48940000     -70.64670000
H      -47.14820000     -32.99730000     -71.46900000
H      -45.61290000     -34.02360000     -71.18270000
C      -45.80700000     -32.32320000     -69.89380000
C      -45.70700000     -32.34820000     -68.50480000
C      -44.95780000     -31.29800000     -70.44090000
H      -46.27450000     -32.92340000     -67.74830000
C      -44.28980000     -30.56270000     -69.42600000
C      -44.60290000     -30.77440000     -71.76810000
C      -43.73810000     -29.71790000     -71.76970000
S      -44.72670000     -31.05570000     -67.81920000
S      -43.40060000     -29.21280000     -70.05350000
H      -43.24950000     -29.25220000     -72.54430000
