40
Properties=species:S:1:pos:R:3 #=T CELL(abcABC):=T 1.889726e+02=T 90.00000=T Traj:=T positionsangstrom=T Step:=T 0=T Bead:=T pbc="F F F"
C      -44.62590000     -32.19480000     -73.28190000
C      -44.28070000     -31.40340000     -72.16270000
C      -43.32920000     -31.91530000     -71.29500000
C      -42.77860000     -33.23850000     -71.47980000
C      -43.09140000     -33.95230000     -72.61940000
C      -44.17390000     -33.44420000     -73.44140000
H      -45.34470000     -31.74010000     -73.92670000
H      -43.18480000     -31.42840000     -70.34780000
H      -42.72940000     -34.99710000     -72.67790000
H      -44.46800000     -33.91530000     -74.42650000
C      -41.83130000     -33.76370000     -70.47830000
H      -41.67920000     -33.02150000     -69.69460000
H      -40.85270000     -33.90810000     -70.91070000
C      -44.73500000     -29.96500000     -72.06450000
H      -44.17320000     -29.56950000     -71.25750000
H      -44.41380000     -29.42330000     -72.93990000
S      -42.23080000     -35.42050000     -69.71170000
S      -46.60360000     -29.67780000     -71.97570000
C      -43.52850000     -34.92510000     -68.43460000
H      -43.86050000     -35.81180000     -67.98440000
H      -43.10220000     -34.24130000     -67.69270000
C      -47.03720000     -30.23320000     -70.31570000
H      -48.10690000     -30.12450000     -70.11330000
H      -46.50180000     -29.67840000     -69.56830000
C      -46.75590000     -31.71370000     -69.88140000
H      -45.71930000     -31.82000000     -69.45910000
H      -47.22730000     -31.98660000     -68.96640000
C      -44.67310000     -34.22210000     -69.09010000
H      -44.23860000     -33.28770000     -69.36910000
H      -45.39110000     -33.83130000     -68.40580000
C      -45.44740000     -34.82860000     -70.24110000
C      -45.49350000     -36.17930000     -70.55970000
C      -46.38240000     -34.05010000     -70.94150000
H      -44.80280000     -36.88660000     -70.22820000
C      -46.98840000     -34.85840000     -71.98630000
C      -47.00840000     -32.81430000     -70.91690000
C      -47.95190000     -32.60750000     -71.91500000
S      -46.56570000     -36.49600000     -71.89080000
S      -48.20890000     -34.06220000     -72.88530000
H      -48.53910000     -31.77840000     -72.21260000
