40
Properties=species:S:1:pos:R:3 #=T CELL(abcABC):=T 1.889726e+02=T 90.00000=T Traj:=T positionsangstrom=T Step:=T 0=T Bead:=T pbc="F F F"
C      -43.68340000     -30.52930000     -70.24220000
C      -45.07400000     -30.57160000     -69.97680000
C      -45.97190000     -30.36800000     -71.06360000
C      -45.55630000     -30.30300000     -72.36140000
C      -44.13390000     -30.23760000     -72.62430000
C      -43.25980000     -30.40440000     -71.58460000
H      -42.97400000     -30.68560000     -69.39990000
H      -47.01750000     -30.34590000     -70.85260000
H      -43.79430000     -30.03810000     -73.65420000
H      -42.25430000     -30.47490000     -71.87480000
C      -46.55090000     -30.19050000     -73.47800000
H      -46.00560000     -30.07100000     -74.42580000
H      -47.07470000     -29.26860000     -73.29260000
C      -45.63550000     -30.46550000     -68.60530000
H      -44.94420000     -30.72210000     -67.80360000
H      -46.11930000     -29.53290000     -68.33630000
S      -47.62610000     -31.71700000     -73.42870000
S      -46.98230000     -31.69560000     -68.25780000
C      -46.29830000     -33.03780000     -73.49990000
H      -45.81830000     -33.08330000     -74.51460000
H      -45.52300000     -32.73270000     -72.75330000
C      -45.96090000     -33.20590000     -68.52760000
H      -46.15280000     -33.87450000     -67.68530000
H      -44.95790000     -32.83070000     -68.35370000
C      -46.16770000     -33.89850000     -69.88400000
H      -47.18180000     -34.34850000     -69.97150000
H      -46.04320000     -33.12900000     -70.71710000
C      -46.77920000     -34.44360000     -73.19340000
H      -47.31190000     -34.82140000     -74.08180000
H      -47.61350000     -34.40750000     -72.46440000
C      -45.60550000     -35.34520000     -72.83640000
C      -45.16110000     -36.24020000     -73.77860000
C      -44.87800000     -35.52040000     -71.52310000
H      -45.49600000     -36.26650000     -74.84330000
C      -43.84500000     -36.40950000     -71.60620000
C      -45.18370000     -35.06180000     -70.15780000
C      -44.29920000     -35.63370000     -69.25090000
S      -43.81440000     -37.24580000     -73.20230000
S      -43.20450000     -36.82840000     -70.00900000
H      -44.25680000     -35.53510000     -68.15910000
