40
Properties=species:S:1:pos:R:3 #=T CELL(abcABC):=T 1.889726e+02=T 90.00000=T Traj:=T positionsangstrom=T Step:=T 0=T Bead:=T pbc="F F F"
C      -44.39660000     -31.89910000     -73.10550000
C      -44.00860000     -31.27550000     -71.91550000
C      -43.22280000     -31.88520000     -70.93880000
C      -42.69130000     -33.18890000     -71.13270000
C      -42.98640000     -33.83100000     -72.41540000
C      -43.83140000     -33.17550000     -73.35510000
H      -45.02840000     -31.39140000     -73.79160000
H      -42.98060000     -31.40400000     -70.01520000
H      -42.51870000     -34.76000000     -72.70280000
H      -44.05500000     -33.76900000     -74.24950000
C      -41.76860000     -33.87270000     -70.16000000
H      -41.66450000     -33.18350000     -69.31110000
H      -40.88600000     -34.20810000     -70.65520000
C      -44.50510000     -29.90680000     -71.61420000
H      -44.43560000     -29.74560000     -70.53100000
H      -43.88170000     -29.12890000     -72.17970000
S      -42.55070000     -35.47620000     -69.40370000
S      -46.23860000     -29.51200000     -72.14600000
C      -43.97000000     -34.99040000     -68.35070000
H      -44.41980000     -35.93930000     -68.02510000
H      -43.60800000     -34.58340000     -67.44390000
C      -47.30570000     -30.23840000     -70.84940000
H      -48.33480000     -30.17100000     -71.14990000
H      -47.28870000     -29.51250000     -70.00050000
C      -46.78970000     -31.64960000     -70.37390000
H      -45.77360000     -31.48100000     -69.90390000
H      -47.37430000     -31.81400000     -69.41390000
C      -45.11870000     -34.14060000     -68.96880000
H      -44.54290000     -33.27480000     -69.33810000
H      -45.77110000     -33.86780000     -68.14720000
C      -45.86390000     -34.88940000     -70.06300000
C      -45.78290000     -36.20850000     -70.34780000
C      -46.56980000     -34.13920000     -71.08530000
H      -45.35510000     -36.96620000     -69.69540000
C      -47.06470000     -34.98370000     -72.04950000
C      -47.01000000     -32.76040000     -71.37220000
C      -47.71370000     -32.68720000     -72.56180000
S      -46.64560000     -36.62890000     -71.82060000
S      -47.94310000     -34.27630000     -73.28120000
H      -47.96070000     -31.72280000     -72.95500000
