40
Properties=species:S:1:pos:R:3 #=T CELL(abcABC):=T 1.889726e+02=T 90.00000=T Traj:=T positionsangstrom=T Step:=T 0=T Bead:=T pbc="F F F"
C      -44.25640000     -31.95550000     -72.98810000
C      -43.82290000     -31.24740000     -71.89590000
C      -43.06690000     -31.78210000     -70.82970000
C      -42.76370000     -33.13010000     -70.95790000
C      -43.17870000     -33.91300000     -72.09090000
C      -43.79690000     -33.25900000     -73.17890000
H      -44.89060000     -31.50490000     -73.75970000
H      -42.74180000     -31.21500000     -70.01620000
H      -42.97430000     -34.96900000     -72.04710000
H      -43.81570000     -33.79090000     -74.14240000
C      -41.98240000     -33.86400000     -69.86010000
H      -41.84150000     -33.27770000     -68.93760000
H      -40.94230000     -33.96950000     -70.25440000
C      -44.40640000     -29.83640000     -71.60080000
H      -44.26280000     -29.57940000     -70.53900000
H      -43.87880000     -29.05020000     -72.12420000
S      -42.56460000     -35.49620000     -69.47000000
S      -46.17610000     -29.66010000     -72.24380000
C      -43.99160000     -34.91870000     -68.33070000
H      -44.28860000     -35.85760000     -67.83970000
H      -43.61470000     -34.21350000     -67.59310000
C      -47.27590000     -30.19160000     -70.89560000
H      -48.33440000     -30.13390000     -71.20140000
H      -47.11210000     -29.44080000     -70.15330000
C      -47.01470000     -31.63870000     -70.33740000
H      -45.96420000     -31.60340000     -69.97870000
H      -47.72210000     -31.92080000     -69.62740000
C      -45.13600000     -34.16760000     -69.00720000
H      -44.81620000     -33.22400000     -69.34790000
H      -45.92480000     -34.05730000     -68.19480000
C      -45.79460000     -34.81290000     -70.19430000
C      -45.61450000     -36.15180000     -70.39270000
C      -46.68550000     -34.12640000     -71.12060000
H      -45.01240000     -36.82210000     -69.83700000
C      -47.04670000     -34.99270000     -72.13470000
C      -47.13630000     -32.79470000     -71.38520000
C      -47.88450000     -32.70950000     -72.55190000
S      -46.55870000     -36.66410000     -71.87040000
S      -47.96190000     -34.17430000     -73.44320000
H      -48.41930000     -31.80810000     -72.76320000
