40
Properties=species:S:1:pos:R:3 #=T CELL(abcABC):=T 1.889726e+02=T 90.00000=T Traj:=T positionsangstrom=T Step:=T 0=T Bead:=T pbc="F F F"
C      -44.01560000     -32.06580000     -73.15080000
C      -43.89300000     -31.27250000     -72.00800000
C      -43.18610000     -31.75550000     -70.85190000
C      -42.73310000     -33.10080000     -70.85400000
C      -42.92500000     -33.89300000     -71.99680000
C      -43.49730000     -33.36320000     -73.11490000
H      -44.49050000     -31.68830000     -74.06460000
H      -43.11560000     -31.10330000     -70.02680000
H      -42.51630000     -34.89560000     -72.14420000
H      -43.48530000     -34.01670000     -73.95420000
C      -42.15630000     -33.61190000     -69.60320000
H      -42.40070000     -33.02050000     -68.70780000
H      -41.06030000     -33.62170000     -69.67180000
C      -44.56090000     -29.93850000     -71.96510000
H      -44.49110000     -29.58090000     -70.92190000
H      -44.17790000     -29.25040000     -72.61680000
S      -42.75350000     -35.43280000     -69.17340000
S      -46.33880000     -29.98500000     -72.40410000
C      -44.32640000     -35.07780000     -68.18710000
H      -44.87180000     -35.96940000     -67.86180000
H      -43.91760000     -34.64770000     -67.25600000
C      -47.04650000     -30.22670000     -70.76800000
H      -48.10630000     -30.00910000     -70.85890000
H      -46.64420000     -29.59940000     -70.02680000
C      -46.90160000     -31.69010000     -70.31980000
H      -45.82150000     -31.72500000     -69.91160000
H      -47.52530000     -31.90290000     -69.43260000
C      -45.34720000     -34.23570000     -68.90490000
H      -44.99300000     -33.22310000     -68.95440000
H      -46.33210000     -34.14870000     -68.27590000
C      -45.75100000     -34.80680000     -70.24240000
C      -45.43590000     -36.05670000     -70.61800000
C      -46.56050000     -34.05170000     -71.21300000
H      -44.81380000     -36.75500000     -70.12800000
C      -46.94280000     -34.86030000     -72.26880000
C      -47.19660000     -32.74060000     -71.30200000
C      -47.96010000     -32.61130000     -72.43120000
S      -46.25600000     -36.48770000     -72.10540000
S      -48.04610000     -34.12400000     -73.35150000
H      -48.54880000     -31.75720000     -72.75750000
