40
Properties=species:S:1:pos:R:3 #=T CELL(abcABC):=T 1.889726e+02=T 90.00000=T Traj:=T positionsangstrom=T Step:=T 0=T Bead:=T pbc="F F F"
C      -41.14130000     -35.49980000     -70.61420000
C      -42.44820000     -35.48110000     -70.15590000
C      -43.41560000     -35.78410000     -71.09240000
C      -43.24610000     -36.09800000     -72.42690000
C      -41.92750000     -36.35590000     -72.80140000
C      -40.94330000     -35.97000000     -71.88460000
H      -40.26380000     -35.18100000     -69.97760000
H      -44.48620000     -35.84590000     -70.76900000
H      -41.63820000     -36.79390000     -73.69520000
H      -39.92160000     -36.17000000     -72.24520000
C      -44.30560000     -36.27690000     -73.37740000
H      -45.26170000     -36.29340000     -72.86340000
H      -44.14130000     -37.13810000     -74.00970000
C      -42.84530000     -35.10690000     -68.79510000
H      -43.93010000     -35.29240000     -68.59490000
H      -42.13650000     -35.49790000     -68.10130000
S      -44.57190000     -34.89110000     -74.60840000
S      -42.88220000     -33.25380000     -68.72800000
C      -45.34440000     -33.52400000     -73.59810000
H      -44.61360000     -33.08810000     -72.98710000
H      -45.60070000     -32.78220000     -74.44230000
C      -44.29270000     -32.88680000     -69.92710000
H      -44.19750000     -33.37430000     -70.90750000
H      -44.16420000     -31.83280000     -70.08920000
C      -45.68890000     -33.30250000     -69.36620000
H      -46.02240000     -34.26550000     -69.69360000
H      -45.74370000     -33.41140000     -68.23950000
C      -46.65910000     -33.89820000     -72.85040000
H      -46.60280000     -34.61720000     -72.04960000
H      -47.24900000     -34.36220000     -73.73370000
C      -47.39360000     -32.65650000     -72.39450000
C      -48.28170000     -32.01040000     -73.21070000
C      -47.41200000     -32.13480000     -71.00970000
H      -48.22710000     -32.10790000     -74.27460000
C      -48.25070000     -31.03500000     -70.98740000
C      -46.71880000     -32.27130000     -69.71040000
C      -47.05320000     -31.29720000     -68.84330000
S      -49.08010000     -30.62940000     -72.43500000
S      -48.21260000     -30.16350000     -69.51470000
H      -46.65190000     -31.07100000     -67.83850000
