40
Properties=species:S:1:pos:R:3 #=T CELL(abcABC):=T 1.889726e+02=T 90.00000=T Traj:=T positionsangstrom=T Step:=T 0=T Bead:=T pbc="F F F"
C      -44.83280000     -29.47380000     -71.01800000
C      -44.85720000     -30.85610000     -70.71200000
C      -45.65270000     -31.73520000     -71.45410000
C      -46.32490000     -31.30360000     -72.64580000
C      -46.22540000     -29.94750000     -73.02610000
C      -45.52560000     -29.04890000     -72.19430000
H      -44.33780000     -28.73730000     -70.44250000
H      -45.65390000     -32.78640000     -71.17350000
H      -46.92220000     -29.73030000     -73.85070000
H      -45.37830000     -27.96200000     -72.42960000
C      -47.05600000     -32.38040000     -73.52700000
H      -47.90910000     -31.91180000     -74.00030000
H      -47.37970000     -33.16750000     -72.81900000
C      -44.13910000     -31.29850000     -69.45590000
H      -43.98320000     -30.54860000     -68.75350000
H      -44.72320000     -32.08040000     -68.97620000
S      -45.93850000     -33.20250000     -74.77760000
S      -42.42260000     -32.03910000     -69.78490000
C      -44.32840000     -33.67960000     -73.99200000
H      -43.60020000     -33.78520000     -74.79820000
H      -43.91770000     -32.90800000     -73.36430000
C      -42.74870000     -33.51830000     -70.78990000
H      -41.90800000     -33.56480000     -71.45220000
H      -43.67740000     -33.47220000     -71.25610000
C      -42.83020000     -34.84120000     -70.04300000
H      -42.50480000     -35.73510000     -70.66290000
H      -42.24420000     -34.76970000     -69.08310000
C      -44.48010000     -35.03270000     -73.23530000
H      -43.52630000     -35.51920000     -72.89630000
H      -44.86300000     -35.68360000     -74.01850000
C      -45.50850000     -35.15340000     -72.17320000
C      -46.80750000     -35.49010000     -72.51390000
C      -45.38380000     -35.15700000     -70.70810000
H      -47.11430000     -35.48700000     -73.53490000
C      -46.56800000     -35.39660000     -70.01280000
C      -44.35150000     -35.08890000     -69.75460000
C      -44.73320000     -35.18800000     -68.44170000
S      -47.93630000     -35.57380000     -71.20850000
S      -46.49440000     -35.31020000     -68.31330000
H      -43.99220000     -35.17590000     -67.63550000
