40
Properties=species:S:1:pos:R:3 #=T CELL(abcABC):=T 1.889726e+02=T 90.00000=T Traj:=T positionsangstrom=T Step:=T 0=T Bead:=T pbc="F F F"
C      -44.60610000     -29.67970000     -70.94480000
C      -44.89400000     -30.92350000     -70.37490000
C      -45.79460000     -31.76980000     -71.10220000
C      -46.41990000     -31.39230000     -72.29120000
C      -46.20700000     -30.11300000     -72.79010000
C      -45.24220000     -29.33300000     -72.16070000
H      -43.82770000     -29.07400000     -70.41980000
H      -46.01600000     -32.79000000     -70.73000000
H      -46.56900000     -29.67700000     -73.74930000
H      -44.96100000     -28.37710000     -72.57460000
C      -47.42850000     -32.30550000     -72.99300000
H      -48.29820000     -31.73310000     -73.47920000
H      -47.81160000     -33.08140000     -72.27150000
C      -44.14960000     -31.36830000     -69.12720000
H      -43.98680000     -30.53870000     -68.41840000
H      -44.77090000     -32.11410000     -68.60120000
S      -46.54070000     -33.00400000     -74.52750000
S      -42.45220000     -32.14810000     -69.32560000
C      -44.78460000     -33.39550000     -74.00410000
H      -44.05320000     -33.18750000     -74.80600000
H      -44.57530000     -32.63180000     -73.22350000
C      -42.59880000     -33.00790000     -71.00130000
H      -41.80260000     -32.73780000     -71.66010000
H      -43.57720000     -32.62050000     -71.36360000
C      -42.78330000     -34.46620000     -70.76890000
H      -42.61070000     -34.94060000     -71.69440000
H      -41.96700000     -34.83080000     -70.21960000
C      -44.61350000     -34.84980000     -73.53500000
H      -43.60420000     -35.00880000     -73.24050000
H      -44.76460000     -35.54150000     -74.35520000
C      -45.57080000     -35.37050000     -72.46030000
C      -46.90520000     -35.76050000     -72.65550000
C      -45.25960000     -35.26590000     -71.06890000
H      -47.36610000     -36.00690000     -73.61410000
C      -46.39590000     -35.28980000     -70.28540000
C      -44.11130000     -34.88970000     -70.27040000
C      -44.38860000     -34.87140000     -68.90480000
S      -47.75850000     -35.97190000     -71.23310000
S      -46.09710000     -35.31320000     -68.56330000
H      -43.65010000     -34.62280000     -68.15250000
