40
Properties=species:S:1:pos:R:3 #=T CELL(abcABC):=T 1.889726e+02=T 90.00000=T Traj:=T positionsangstrom=T Step:=T 0=T Bead:=T pbc="F F F"
C      -42.24350000     -35.27930000     -70.20930000
C      -42.81620000     -35.70320000     -71.41130000
C      -44.06560000     -36.39960000     -71.36970000
C      -44.64190000     -36.74900000     -70.13990000
C      -44.06740000     -36.28050000     -68.96330000
C      -42.84920000     -35.55840000     -68.98360000
H      -41.30860000     -34.68510000     -70.25690000
H      -44.62780000     -36.58910000     -72.27050000
H      -44.59100000     -36.59120000     -68.03960000
H      -42.46010000     -35.16370000     -68.06030000
C      -45.96700000     -37.43730000     -70.07120000
H      -46.20450000     -37.88120000     -69.10350000
H      -45.87610000     -38.27700000     -70.78050000
C      -42.12180000     -35.26150000     -72.66830000
H      -41.46310000     -34.35930000     -72.47340000
H      -41.57880000     -36.16320000     -73.10780000
S      -47.36770000     -36.39460000     -70.63200000
S      -43.35020000     -34.60220000     -73.97750000
C      -47.19920000     -34.65640000     -69.94020000
H      -48.30850000     -34.37160000     -69.97630000
H      -46.88170000     -34.66720000     -68.89730000
C      -43.92640000     -32.97320000     -73.26290000
H      -43.13960000     -32.21090000     -73.46870000
H      -43.91030000     -33.18880000     -72.14190000
C      -45.22830000     -32.53170000     -73.81700000
H      -45.04960000     -32.14440000     -74.81660000
H      -45.94420000     -33.37600000     -73.87010000
C      -46.33570000     -33.75770000     -70.80020000
H      -46.37130000     -34.12760000     -71.85480000
H      -45.29520000     -33.83810000     -70.52110000
C      -46.70440000     -32.28210000     -70.63580000
C      -47.21770000     -31.76720000     -69.48130000
C      -46.18000000     -31.30530000     -71.57650000
H      -47.51080000     -32.38270000     -68.61300000
C      -46.37200000     -30.05270000     -71.06670000
C      -45.69180000     -31.28630000     -72.93390000
C      -45.57140000     -29.96460000     -73.34790000
S      -47.21310000     -30.00600000     -69.48160000
S      -45.96730000     -28.79470000     -72.14010000
H      -45.49580000     -29.68260000     -74.39630000
