40
Properties=species:S:1:pos:R:3 #=T CELL(abcABC):=T 1.889726e+02=T 90.00000=T Traj:=T positionsangstrom=T Step:=T 0=T Bead:=T pbc="F F F"
C      -44.18900000     -30.54090000     -69.89860000
C      -45.56950000     -30.57900000     -69.78430000
C      -46.36520000     -30.51710000     -70.97070000
C      -45.70520000     -30.37650000     -72.15400000
C      -44.31650000     -30.47530000     -72.34080000
C      -43.55260000     -30.52400000     -71.17010000
H      -43.60480000     -30.60350000     -68.99990000
H      -47.47470000     -30.51940000     -70.89450000
H      -43.96850000     -30.09950000     -73.33660000
H      -42.41040000     -30.45950000     -71.08530000
C      -46.51790000     -30.31800000     -73.43540000
H      -45.75900000     -30.01240000     -74.23140000
H      -47.25840000     -29.49900000     -73.32000000
C      -46.21300000     -30.51380000     -68.41190000
H      -45.50050000     -30.46300000     -67.61050000
H      -46.95010000     -29.72370000     -68.14980000
S      -47.48230000     -31.91460000     -73.67460000
S      -47.14200000     -32.04890000     -68.09080000
C      -46.11730000     -33.14220000     -73.69450000
H      -45.82780000     -33.16820000     -74.72980000
H      -45.35110000     -32.80010000     -73.09790000
C      -45.88510000     -33.37600000     -68.50430000
H      -45.88870000     -34.07380000     -67.66790000
H      -44.89650000     -32.87710000     -68.45230000
C      -46.15800000     -33.95430000     -69.89540000
H      -46.96190000     -34.64530000     -69.87900000
H      -46.49440000     -33.12930000     -70.58520000
C      -46.60930000     -34.46790000     -73.24280000
H      -47.38050000     -34.98640000     -73.88930000
H      -47.17160000     -34.19880000     -72.34330000
C      -45.55710000     -35.41220000     -72.92800000
C      -45.11930000     -36.34680000     -73.80500000
C      -44.81750000     -35.36760000     -71.67890000
H      -45.40740000     -36.47360000     -74.78600000
C      -43.73820000     -36.26100000     -71.73280000
C      -44.93100000     -34.73950000     -70.40540000
C      -43.91150000     -35.10030000     -69.54470000
S      -43.68630000     -37.15950000     -73.17620000
S      -42.80790000     -36.29680000     -70.23010000
H      -43.77080000     -34.83230000     -68.51750000
