40
Properties=species:S:1:pos:R:3 #=T CELL(abcABC):=T 1.889726e+02=T 90.00000=T Traj:=T positionsangstrom=T Step:=T 0=T Bead:=T pbc="F F F"
C      -44.17020000     -29.71430000     -71.36210000
C      -44.38520000     -31.00810000     -70.80260000
C      -45.51940000     -31.72050000     -71.17720000
C      -46.44270000     -31.13450000     -72.10370000
C      -46.28220000     -29.84230000     -72.59300000
C      -45.07240000     -29.12940000     -72.24050000
H      -43.23240000     -29.21920000     -71.24080000
H      -45.66140000     -32.76650000     -70.90080000
H      -46.95820000     -29.36250000     -73.32900000
H      -44.77860000     -28.18240000     -72.64320000
C      -47.63380000     -31.89950000     -72.47720000
H      -48.47160000     -31.26640000     -72.82090000
H      -47.97500000     -32.41110000     -71.50910000
C      -43.45780000     -31.63250000     -69.87560000
H      -43.13000000     -30.96430000     -69.08930000
H      -43.68880000     -32.51630000     -69.24640000
S      -47.48930000     -32.97220000     -73.97120000
S      -41.89140000     -32.09720000     -70.82000000
C      -45.83760000     -33.76330000     -74.01140000
H      -45.50190000     -33.65520000     -75.00670000
H      -45.20760000     -33.15210000     -73.27450000
C      -42.64100000     -33.30240000     -72.10150000
H      -41.97980000     -33.44390000     -72.98710000
H      -43.57030000     -32.94790000     -72.47710000
C      -42.88750000     -34.75810000     -71.60050000
H      -43.06900000     -35.40390000     -72.44910000
H      -42.00720000     -35.10950000     -71.05250000
C      -45.78170000     -35.28310000     -73.56810000
H      -44.81230000     -35.81230000     -73.64130000
H      -46.44690000     -35.94850000     -74.08560000
C      -46.24170000     -35.32100000     -72.07540000
C      -47.56390000     -35.48140000     -71.68450000
C      -45.37970000     -35.17830000     -70.91380000
H      -48.40800000     -35.66880000     -72.27170000
C      -46.12470000     -35.35530000     -69.73710000
C      -43.96640000     -35.08410000     -70.61680000
C      -43.71700000     -35.21010000     -69.28260000
S      -47.89500000     -35.49940000     -69.93230000
S      -45.11110000     -35.47600000     -68.23090000
H      -42.66660000     -35.04450000     -68.96730000
