40
Properties=species:S:1:pos:R:3 #=T CELL(abcABC):=T 1.889726e+02=T 90.00000=T Traj:=T positionsangstrom=T Step:=T 0=T Bead:=T pbc="F F F"
C      -44.28370000     -29.76710000     -71.52630000
C      -44.45230000     -31.05900000     -70.99520000
C      -45.63610000     -31.73960000     -71.27630000
C      -46.62100000     -31.28700000     -72.19710000
C      -46.43590000     -30.00280000     -72.70860000
C      -45.29170000     -29.23430000     -72.37960000
H      -43.36060000     -29.23480000     -71.36410000
H      -45.76460000     -32.74360000     -70.76990000
H      -47.17510000     -29.60500000     -73.44900000
H      -45.21500000     -28.32260000     -72.99980000
C      -47.87980000     -32.09870000     -72.48850000
H      -48.70350000     -31.48830000     -72.82380000
H      -48.15900000     -32.83780000     -71.67340000
C      -43.46000000     -31.60420000     -69.96210000
H      -43.01860000     -30.81030000     -69.37700000
H      -43.91150000     -32.44710000     -69.44660000
S      -47.54370000     -33.15610000     -73.97950000
S      -41.94010000     -32.26300000     -70.74610000
C      -45.82410000     -33.76700000     -73.88600000
H      -45.41100000     -33.70250000     -74.87600000
H      -45.16760000     -33.02160000     -73.23740000
C      -42.60080000     -33.36840000     -72.09760000
H      -41.80400000     -33.35680000     -72.81760000
H      -43.49390000     -32.86910000     -72.58030000
C      -42.87850000     -34.78730000     -71.86110000
H      -43.20670000     -35.30090000     -72.75650000
H      -41.93090000     -35.29810000     -71.64330000
C      -45.81200000     -35.22200000     -73.35520000
H      -44.82960000     -35.65720000     -73.51790000
H      -46.47070000     -35.79810000     -73.92560000
C      -46.30710000     -35.23530000     -71.93330000
C      -47.56780000     -35.45040000     -71.51450000
C      -45.30420000     -35.09980000     -70.82970000
H      -48.44780000     -35.70610000     -72.20550000
C      -45.99180000     -35.21400000     -69.59650000
C      -43.88030000     -35.04290000     -70.71680000
C      -43.50070000     -35.07110000     -69.37190000
S      -47.77050000     -35.40080000     -69.75000000
S      -44.86710000     -35.12670000     -68.25680000
H      -42.51360000     -35.02340000     -68.95700000
