40
Properties=species:S:1:pos:R:3 #=T CELL(abcABC):=T 1.889726e+02=T 90.00000=T Traj:=T positionsangstrom=T Step:=T 0=T Bead:=T pbc="F F F"
C      -44.28700000     -29.84070000     -71.70080000
C      -44.55810000     -30.95610000     -70.88970000
C      -45.76440000     -31.62110000     -70.95200000
C      -46.73340000     -31.35120000     -71.99640000
C      -46.37590000     -30.32750000     -72.88640000
C      -45.18440000     -29.57000000     -72.72780000
H      -43.37350000     -29.26240000     -71.68140000
H      -45.99750000     -32.44140000     -70.31670000
H      -47.09090000     -30.15430000     -73.71990000
H      -44.85090000     -28.76590000     -73.36780000
C      -47.88350000     -32.24880000     -72.23840000
H      -48.81900000     -31.67370000     -72.45850000
H      -48.07040000     -33.04690000     -71.46870000
C      -43.35960000     -31.38870000     -69.97120000
H      -42.90770000     -30.50190000     -69.44460000
H      -43.68160000     -32.22220000     -69.24250000
S      -47.68100000     -33.15890000     -73.84860000
S      -41.94360000     -32.12980000     -70.82100000
C      -45.89720000     -33.76260000     -73.88370000
H      -45.45380000     -33.74650000     -74.91860000
H      -45.32010000     -33.09110000     -73.21420000
C      -42.75400000     -33.11810000     -72.34520000
H      -42.09110000     -32.94790000     -73.24760000
H      -43.66170000     -32.62580000     -72.71070000
C      -42.97140000     -34.57130000     -71.95120000
H      -43.39990000     -35.09280000     -72.75690000
H      -41.98680000     -35.00610000     -71.86980000
C      -45.92530000     -35.27300000     -73.39420000
H      -44.92970000     -35.72040000     -73.52180000
H      -46.63790000     -35.85290000     -73.92720000
C      -46.20920000     -35.37690000     -71.87180000
C      -47.51010000     -35.71000000     -71.46360000
C      -45.33090000     -35.08260000     -70.80900000
H      -48.31190000     -35.96500000     -72.07920000
C      -45.91000000     -35.14950000     -69.50770000
C      -43.90030000     -34.76380000     -70.73740000
C      -43.48640000     -34.76480000     -69.43080000
S      -47.61290000     -35.62160000     -69.74400000
S      -44.75230000     -35.11880000     -68.27620000
H      -42.45390000     -34.55780000     -69.10340000
