40
Properties=species:S:1:pos:R:3 #=T CELL(abcABC):=T 1.889726e+02=T 90.00000=T Traj:=T positionsangstrom=T Step:=T 0=T Bead:=T pbc="F F F"
C      -44.14140000     -29.84120000     -71.88170000
C      -44.41200000     -30.93480000     -71.01710000
C      -45.67770000     -31.60660000     -71.09050000
C      -46.61060000     -31.25990000     -72.02180000
C      -46.33510000     -30.15830000     -72.87800000
C      -45.11460000     -29.49530000     -72.80700000
H      -43.24200000     -29.31100000     -71.82560000
H      -45.85580000     -32.42310000     -70.41470000
H      -47.14470000     -29.80390000     -73.53840000
H      -44.90880000     -28.78230000     -73.66810000
C      -47.86540000     -32.10530000     -72.15400000
H      -48.73270000     -31.53590000     -72.22590000
H      -47.93870000     -32.75130000     -71.30550000
C      -43.45430000     -31.41820000     -69.96090000
H      -43.15980000     -30.60990000     -69.32650000
H      -43.94540000     -32.17830000     -69.39370000
S      -47.84020000     -33.12790000     -73.73310000
S      -41.90580000     -32.05210000     -70.92590000
C      -46.18420000     -33.79120000     -73.85060000
H      -46.03300000     -33.77310000     -74.88330000
H      -45.33860000     -33.17160000     -73.45400000
C      -42.73500000     -33.17000000     -72.22920000
H      -42.05590000     -33.14550000     -73.04430000
H      -43.72250000     -32.63890000     -72.44830000
C      -42.78520000     -34.61990000     -71.76490000
H      -42.90600000     -35.16720000     -72.73860000
H      -41.80770000     -34.99810000     -71.38820000
C      -46.03460000     -35.24960000     -73.38590000
H      -45.06290000     -35.59590000     -73.79690000
H      -46.70890000     -35.73890000     -74.07370000
C      -46.25660000     -35.33520000     -71.92380000
C      -47.51990000     -35.71480000     -71.44970000
C      -45.30940000     -35.21070000     -70.87730000
H      -48.36610000     -35.91470000     -72.05230000
C      -45.88820000     -35.31990000     -69.55700000
C      -43.85940000     -34.92640000     -70.76680000
C      -43.51620000     -34.85960000     -69.40900000
S      -47.55440000     -35.78000000     -69.68550000
S      -44.80490000     -35.03390000     -68.25330000
H      -42.50330000     -34.58930000     -69.20180000
