40
Properties=species:S:1:pos:R:3 #=T CELL(abcABC):=T 1.889726e+02=T 90.00000=T Traj:=T positionsangstrom=T Step:=T 0=T Bead:=T pbc="F F F"
C      -44.21300000     -29.67750000     -71.89430000
C      -44.36720000     -30.83380000     -71.05060000
C      -45.54180000     -31.60540000     -71.23420000
C      -46.58250000     -31.18320000     -72.06380000
C      -46.36870000     -30.09280000     -72.90080000
C      -45.18540000     -29.33220000     -72.81880000
H      -43.33550000     -29.08050000     -71.71510000
H      -45.69880000     -32.53540000     -70.59160000
H      -47.06940000     -29.72910000     -73.69750000
H      -45.22650000     -28.44720000     -73.45680000
C      -47.91480000     -31.94350000     -72.20700000
H      -48.74980000     -31.19850000     -72.18630000
H      -48.03070000     -32.45320000     -71.19660000
C      -43.30710000     -31.29810000     -70.17570000
H      -42.72970000     -30.43930000     -69.69860000
H      -43.66060000     -31.86630000     -69.31430000
S      -48.06170000     -33.06300000     -73.66630000
S      -41.76470000     -32.14000000     -71.03600000
C      -46.37320000     -33.72670000     -73.86450000
H      -46.14710000     -33.72800000     -74.95250000
H      -45.72970000     -32.98930000     -73.31790000
C      -42.43860000     -33.28440000     -72.20520000
H      -41.69140000     -33.41000000     -72.97190000
H      -43.31080000     -32.89490000     -72.69170000
C      -42.82020000     -34.74910000     -71.73700000
H      -43.11170000     -35.33890000     -72.62530000
H      -41.88370000     -35.15220000     -71.43330000
C      -46.09010000     -35.13660000     -73.40370000
H      -45.09740000     -35.42610000     -73.69560000
H      -46.64490000     -35.96230000     -73.81970000
C      -46.24630000     -35.41350000     -71.84540000
C      -47.47700000     -35.80050000     -71.36880000
C      -45.26630000     -35.31130000     -70.81070000
H      -48.34100000     -35.80410000     -71.96210000
C      -45.86480000     -35.50340000     -69.58760000
C      -43.89220000     -34.92010000     -70.67860000
C      -43.52720000     -34.78640000     -69.35650000
S      -47.54500000     -35.82490000     -69.65830000
S      -44.83310000     -35.15450000     -68.18420000
H      -42.48380000     -34.65860000     -69.02430000
