40
Properties=species:S:1:pos:R:3 #=T CELL(abcABC):=T 1.889726e+02=T 90.00000=T Traj:=T positionsangstrom=T Step:=T 0=T Bead:=T pbc="F F F"
C      -43.73310000     -29.78210000     -72.03470000
C      -43.90170000     -30.88900000     -71.17940000
C      -45.17750000     -31.52760000     -71.10150000
C      -46.28190000     -30.99540000     -71.77640000
C      -46.13680000     -29.82880000     -72.62500000
C      -44.86430000     -29.23070000     -72.67570000
H      -42.71660000     -29.35490000     -72.16260000
H      -45.22490000     -32.44090000     -70.42440000
H      -47.00180000     -29.49850000     -73.23300000
H      -44.72120000     -28.29610000     -73.27480000
C      -47.56820000     -31.74630000     -71.78380000
H      -48.41780000     -31.07400000     -71.79610000
H      -47.73110000     -32.48130000     -70.96620000
C      -42.62430000     -31.48640000     -70.56600000
H      -41.96200000     -30.74370000     -70.17690000
H      -42.98890000     -32.26720000     -69.89340000
S      -48.03830000     -32.78190000     -73.41360000
S      -41.68490000     -32.51880000     -71.74120000
C      -46.47540000     -33.62680000     -73.73890000
H      -46.22440000     -33.73380000     -74.79050000
H      -45.69110000     -32.89570000     -73.44700000
C      -42.98540000     -33.55670000     -72.52150000
H      -42.73280000     -33.55620000     -73.57980000
H      -43.94470000     -32.99300000     -72.47820000
C      -43.24620000     -34.94850000     -71.96760000
H      -43.71700000     -35.53280000     -72.77690000
H      -42.24980000     -35.38180000     -71.71300000
C      -46.29080000     -34.99720000     -73.16640000
H      -45.22580000     -35.26050000     -73.26100000
H      -46.91290000     -35.72620000     -73.74430000
C      -46.60750000     -35.19810000     -71.71790000
C      -47.87560000     -35.50500000     -71.23820000
C      -45.57100000     -35.14880000     -70.75400000
H      -48.89780000     -35.63730000     -71.67360000
C      -46.07430000     -35.32160000     -69.44810000
C      -44.11590000     -35.06740000     -70.72330000
C      -43.62900000     -35.18020000     -69.42700000
S      -47.76740000     -35.66590000     -69.46820000
S      -44.83300000     -35.39530000     -68.19800000
H      -42.57110000     -35.22370000     -69.20040000
