40
Properties=species:S:1:pos:R:3 #=T CELL(abcABC):=T 1.889726e+02=T 90.00000=T Traj:=T positionsangstrom=T Step:=T 0=T Bead:=T pbc="F F F"
C      -44.60760000     -30.50780000     -69.53890000
C      -46.04560000     -30.36030000     -69.64200000
C      -46.63750000     -30.29690000     -70.87360000
C      -45.87240000     -30.42380000     -72.06420000
C      -44.49520000     -30.71760000     -71.95930000
C      -43.86120000     -30.71250000     -70.67050000
H      -44.06870000     -30.48790000     -68.50920000
H      -47.76190000     -30.20060000     -70.95910000
H      -43.87720000     -30.87440000     -72.82740000
H      -42.84620000     -30.88620000     -70.71000000
C      -46.62100000     -30.37150000     -73.36950000
H      -45.94540000     -30.27640000     -74.21790000
H      -47.49510000     -29.70960000     -73.21950000
C      -46.85270000     -30.56220000     -68.37620000
H      -46.24510000     -30.22070000     -67.47580000
H      -47.76910000     -29.93830000     -68.45410000
S      -47.48920000     -32.04270000     -73.62490000
S      -47.37390000     -32.32250000     -68.25560000
C      -46.12020000     -33.23420000     -73.48890000
H      -45.51410000     -33.29320000     -74.36320000
H      -45.46780000     -32.98210000     -72.67690000
C      -45.84320000     -33.32070000     -68.63780000
H      -46.22360000     -34.27310000     -68.17760000
H      -45.02810000     -32.95670000     -68.02490000
C      -45.68770000     -33.60240000     -70.11020000
H      -46.55790000     -34.17430000     -70.51680000
H      -45.70530000     -32.70050000     -70.69290000
C      -46.73990000     -34.68240000     -73.19720000
H      -47.28060000     -35.04890000     -74.02090000
H      -47.41830000     -34.53180000     -72.33240000
C      -45.52310000     -35.51430000     -72.83580000
C      -45.09790000     -36.45410000     -73.73470000
C      -44.59990000     -35.31810000     -71.73550000
H      -45.65990000     -36.79630000     -74.65990000
C      -43.47410000     -36.12340000     -71.86300000
C      -44.53340000     -34.48520000     -70.48820000
C      -43.35630000     -34.77310000     -69.79350000
S      -43.57820000     -37.12390000     -73.26370000
S      -42.35770000     -36.10000000     -70.51290000
H      -43.08770000     -34.40550000     -68.81450000
