40
Properties=species:S:1:pos:R:3 #=T CELL(abcABC):=T 1.889726e+02=T 90.00000=T Traj:=T positionsangstrom=T Step:=T 0=T Bead:=T pbc="F F F"
C      -43.57320000     -30.15870000     -72.01230000
C      -43.79790000     -31.34530000     -71.25100000
C      -45.13510000     -31.73680000     -71.01710000
C      -46.19910000     -31.04340000     -71.55190000
C      -45.96090000     -29.90000000     -72.33900000
C      -44.61680000     -29.43350000     -72.53080000
H      -42.54200000     -29.83120000     -72.01260000
H      -45.29860000     -32.61320000     -70.34420000
H      -46.85140000     -29.47460000     -72.75430000
H      -44.42420000     -28.57520000     -73.12010000
C      -47.62330000     -31.58910000     -71.53270000
H      -48.39480000     -30.81930000     -71.39770000
H      -47.80900000     -32.45170000     -70.84520000
C      -42.70180000     -32.15570000     -70.62460000
H      -42.01280000     -31.42730000     -70.26850000
H      -43.01890000     -32.57530000     -69.63380000
S      -48.06520000     -32.37950000     -73.11420000
S      -41.76220000     -33.28520000     -71.74910000
C      -46.58640000     -33.51590000     -73.63310000
H      -46.55400000     -33.48270000     -74.76250000
H      -45.72060000     -33.03340000     -73.27900000
C      -42.98910000     -34.05970000     -72.81310000
H      -42.56280000     -34.13920000     -73.83600000
H      -43.80110000     -33.39820000     -73.10060000
C      -43.46120000     -35.54070000     -72.30110000
H      -43.86270000     -36.13270000     -73.11660000
H      -42.47730000     -35.96680000     -72.15690000
C      -46.66200000     -34.92500000     -73.19920000
H      -45.72000000     -35.49080000     -73.48580000
H      -47.48500000     -35.42920000     -73.65510000
C      -46.85760000     -35.10210000     -71.73510000
C      -48.01550000     -34.88350000     -71.03620000
C      -45.70040000     -35.19920000     -70.88790000
H      -49.06820000     -34.74990000     -71.47770000
C      -45.96190000     -34.94750000     -69.52850000
C      -44.29060000     -35.43490000     -71.08540000
C      -43.55260000     -35.33510000     -69.91860000
S      -47.72270000     -34.72420000     -69.21050000
S      -44.54070000     -35.02680000     -68.52450000
H      -42.45820000     -35.56890000     -69.85140000
