40
Properties=species:S:1:pos:R:3 #=T CELL(abcABC):=T 1.889726e+02=T 90.00000=T Traj:=T positionsangstrom=T Step:=T 0=T Bead:=T pbc="F F F"
C      -43.28170000     -30.65810000     -72.83200000
C      -43.69070000     -31.44950000     -71.78920000
C      -45.00870000     -31.47520000     -71.34530000
C      -45.97680000     -30.67020000     -71.92170000
C      -45.48980000     -29.74120000     -72.86520000
C      -44.19090000     -29.73450000     -73.32380000
H      -42.27030000     -30.57640000     -73.15470000
H      -45.42210000     -32.10700000     -70.55730000
H      -46.22180000     -29.02290000     -73.25130000
H      -43.93980000     -29.08480000     -74.18500000
C      -47.39810000     -30.79520000     -71.50080000
H      -47.95520000     -29.85150000     -71.33490000
H      -47.53820000     -31.43980000     -70.62380000
C      -42.66910000     -32.40160000     -71.14210000
H      -41.78400000     -31.83300000     -70.79880000
H      -43.21590000     -32.80180000     -70.27860000
S      -48.30470000     -31.72790000     -72.88500000
S      -41.97520000     -33.69730000     -72.30560000
C      -47.12810000     -33.11360000     -73.13650000
H      -46.93510000     -33.17850000     -74.24520000
H      -46.21470000     -32.76240000     -72.72820000
C      -43.46030000     -34.34400000     -73.11090000
H      -43.27980000     -34.47580000     -74.20540000
H      -44.18070000     -33.50430000     -73.05990000
C      -44.12370000     -35.66810000     -72.54800000
H      -44.92010000     -35.78370000     -73.21840000
H      -43.43400000     -36.46870000     -72.74060000
C      -47.44620000     -34.47980000     -72.53590000
H      -47.05500000     -35.38600000     -73.02600000
H      -48.52270000     -34.60730000     -72.48170000
C      -46.96430000     -34.68270000     -71.08910000
C      -47.86040000     -34.39450000     -70.09010000
C      -45.70810000     -35.14370000     -70.53370000
H      -48.94250000     -33.98430000     -70.15480000
C      -45.73180000     -35.05750000     -69.13760000
C      -44.50090000     -35.60380000     -71.08440000
C      -43.64470000     -35.98790000     -70.09390000
S      -47.24380000     -34.63130000     -68.49500000
S      -44.20920000     -35.76250000     -68.46640000
H      -42.60340000     -36.24440000     -70.34770000
