40
Properties=species:S:1:pos:R:3 #=T CELL(abcABC):=T 1.889726e+02=T 90.00000=T Traj:=T positionsangstrom=T Step:=T 0=T Bead:=T pbc="F F F"
C      -42.79050000     -30.92420000     -72.85980000
C      -43.26280000     -31.92080000     -71.99020000
C      -44.53370000     -31.74740000     -71.39260000
C      -45.36920000     -30.70150000     -71.74070000
C      -44.95430000     -29.80690000     -72.72600000
C      -43.65450000     -29.89700000     -73.19420000
H      -41.78520000     -31.03050000     -73.30070000
H      -44.86100000     -32.45390000     -70.58390000
H      -45.62120000     -28.99270000     -72.98010000
H      -43.30310000     -29.12610000     -73.94950000
C      -46.77170000     -30.62500000     -71.12900000
H      -47.07370000     -29.63030000     -70.79100000
H      -46.69100000     -31.31900000     -70.26860000
C      -42.53600000     -33.22010000     -71.63990000
H      -41.54200000     -32.88360000     -71.34560000
H      -43.05580000     -33.75930000     -70.86260000
S      -48.10310000     -31.21120000     -72.28090000
S      -42.32960000     -34.30420000     -73.17260000
C      -47.39740000     -32.74260000     -72.93430000
H      -47.90800000     -32.84360000     -73.86640000
H      -46.29990000     -32.58600000     -73.16170000
C      -44.08730000     -34.78390000     -73.60660000
H      -43.98010000     -35.29160000     -74.58320000
H      -44.73870000     -33.87160000     -73.66950000
C      -44.69610000     -35.71770000     -72.65400000
H      -45.71610000     -36.01410000     -73.02390000
H      -44.06790000     -36.64110000     -72.77530000
C      -47.76850000     -34.07990000     -72.29360000
H      -47.42120000     -34.85120000     -72.90130000
H      -48.85870000     -34.16540000     -72.10240000
C      -47.24010000     -34.21110000     -70.85630000
C      -48.00710000     -33.98410000     -69.75320000
C      -45.88950000     -34.72500000     -70.47830000
H      -49.04340000     -33.60620000     -69.74760000
C      -45.79580000     -34.94860000     -69.07640000
C      -44.82590000     -35.40570000     -71.14520000
C      -43.93710000     -36.04280000     -70.29090000
S      -47.18630000     -34.32150000     -68.23020000
S      -44.37810000     -35.87040000     -68.58300000
H      -43.08230000     -36.60660000     -70.63680000
