40
Properties=species:S:1:pos:R:3 #=T CELL(abcABC):=T 1.889726e+02=T 90.00000=T Traj:=T positionsangstrom=T Step:=T 0=T Bead:=T pbc="F F F"
C      -42.50080000     -33.74020000     -74.26200000
C      -43.81380000     -33.31960000     -74.50620000
C      -44.89510000     -34.21530000     -74.40120000
C      -44.67040000     -35.54580000     -74.01370000
C      -43.34470000     -35.99140000     -73.86070000
C      -42.25800000     -35.13770000     -73.98350000
H      -41.63960000     -33.07340000     -74.15340000
H      -45.90610000     -33.80010000     -74.71610000
H      -43.17160000     -37.03800000     -73.46640000
H      -41.23380000     -35.51850000     -73.85240000
C      -45.77280000     -36.50320000     -73.63940000
H      -45.35970000     -37.53140000     -73.73120000
H      -46.71040000     -36.52120000     -74.20960000
C      -44.10480000     -31.87720000     -74.91970000
H      -43.21170000     -31.27390000     -74.80170000
H      -44.53970000     -31.73080000     -75.86810000
S      -46.38640000     -36.38050000     -71.94510000
S      -45.42750000     -31.13730000     -73.70880000
C      -47.63170000     -34.89540000     -71.95990000
H      -47.91370000     -34.68200000     -72.99770000
H      -48.53900000     -35.26910000     -71.42510000
C      -44.51110000     -30.95470000     -72.16770000
H      -43.64490000     -30.34390000     -72.33430000
H      -43.98170000     -31.91400000     -71.86600000
C      -45.52390000     -30.48630000     -71.05090000
H      -45.71600000     -29.40500000     -70.95840000
H      -46.47270000     -30.87050000     -71.44250000
C      -46.92830000     -33.61870000     -71.43020000
H      -47.54550000     -32.68280000     -71.67940000
H      -46.03110000     -33.50740000     -72.03640000
C      -46.61710000     -33.58240000     -69.90890000
C      -46.85850000     -34.66970000     -69.04730000
C      -45.85970000     -32.53260000     -69.31900000
H      -47.26750000     -35.66240000     -69.27660000
C      -45.64410000     -32.76570000     -67.92920000
C      -45.39560000     -31.18010000     -69.70740000
C      -44.79010000     -30.54500000     -68.62680000
S      -46.36110000     -34.28710000     -67.40270000
S      -44.77510000     -31.47770000     -67.13070000
H      -44.40980000     -29.57610000     -68.63320000
