40
Properties=species:S:1:pos:R:3 #=T CELL(abcABC):=T 1.889726e+02=T 90.00000=T Traj:=T positionsangstrom=T Step:=T 0=T Bead:=T pbc="F F F"
C      -42.97490000     -31.14240000     -73.74230000
C      -43.02140000     -32.01960000     -72.66310000
C      -44.05570000     -32.00790000     -71.72140000
C      -45.07610000     -31.08990000     -71.79940000
C      -44.99890000     -30.17450000     -72.84380000
C      -43.99330000     -30.17760000     -73.81360000
H      -42.24220000     -31.24570000     -74.51820000
H      -43.98990000     -32.67850000     -70.90740000
H      -45.81580000     -29.45380000     -72.83740000
H      -44.12180000     -29.49530000     -74.63840000
C      -46.12110000     -31.00450000     -70.67930000
H      -45.97790000     -30.10540000     -70.14440000
H      -45.96400000     -31.87150000     -70.02880000
C      -42.04330000     -33.14760000     -72.59100000
H      -41.18850000     -33.05810000     -73.21810000
H      -41.59920000     -33.31420000     -71.59710000
S      -47.83850000     -30.98050000     -71.31090000
S      -42.58050000     -34.86190000     -73.29810000
C      -47.77260000     -32.39130000     -72.47480000
H      -48.51450000     -32.16480000     -73.27070000
H      -46.84270000     -32.36630000     -72.91640000
C      -44.33120000     -34.68810000     -73.65440000
H      -44.55280000     -34.94830000     -74.70060000
H      -44.50670000     -33.62980000     -73.62810000
C      -45.29440000     -35.57100000     -72.75560000
H      -46.28190000     -35.44020000     -73.07700000
H      -45.13700000     -36.61630000     -73.02020000
C      -48.13700000     -33.77300000     -71.89020000
H      -47.81950000     -34.67690000     -72.51180000
H      -49.20700000     -33.92570000     -71.76190000
C      -47.42730000     -34.01260000     -70.56770000
C      -47.95450000     -33.73860000     -69.31800000
C      -46.13980000     -34.63360000     -70.41930000
H      -48.99120000     -33.28150000     -69.24260000
C      -45.77360000     -34.78010000     -69.06550000
C      -45.11880000     -35.42610000     -71.29510000
C      -44.17690000     -35.98060000     -70.51260000
S      -46.93830000     -34.13700000     -67.96670000
S      -44.27060000     -35.64790000     -68.84840000
H      -43.39680000     -36.66650000     -70.95600000
