40
Properties=species:S:1:pos:R:3 #=T CELL(abcABC):=T 1.889726e+02=T 90.00000=T Traj:=T positionsangstrom=T Step:=T 0=T Bead:=T pbc="F F F"
C      -43.23070000     -31.51650000     -73.68080000
C      -43.11270000     -32.22370000     -72.48270000
C      -44.00580000     -31.96110000     -71.48580000
C      -45.02360000     -31.04430000     -71.66020000
C      -45.11110000     -30.33950000     -72.81950000
C      -44.20750000     -30.59200000     -73.85550000
H      -42.63560000     -31.69590000     -74.55120000
H      -43.93990000     -32.49900000     -70.51060000
H      -45.99980000     -29.69350000     -72.88850000
H      -44.27390000     -30.06000000     -74.78870000
C      -46.06020000     -30.92260000     -70.54930000
H      -45.86940000     -30.00420000     -70.01740000
H      -45.89270000     -31.75330000     -69.91870000
C      -42.12460000     -33.36970000     -72.44430000
H      -41.15320000     -33.07970000     -72.77830000
H      -42.11750000     -33.62480000     -71.37470000
S      -47.84080000     -30.94110000     -71.07920000
S      -42.57890000     -34.91450000     -73.35840000
C      -47.84010000     -32.30410000     -72.36130000
H      -48.53700000     -32.12340000     -73.09250000
H      -46.91300000     -32.40510000     -72.95790000
C      -44.38210000     -34.75520000     -73.81990000
H      -44.47260000     -35.18400000     -74.78340000
H      -44.68400000     -33.69080000     -73.88830000
C      -45.36510000     -35.49820000     -72.94380000
H      -46.41420000     -35.17010000     -73.18570000
H      -45.36290000     -36.56790000     -73.05420000
C      -48.31390000     -33.67450000     -71.72010000
H      -48.17490000     -34.37780000     -72.52740000
H      -49.38370000     -33.69520000     -71.37040000
C      -47.56330000     -34.08330000     -70.51980000
C      -47.93200000     -33.69030000     -69.25100000
C      -46.18030000     -34.67800000     -70.52610000
H      -48.86680000     -33.21120000     -69.06550000
C      -45.67570000     -34.75000000     -69.24350000
C      -45.18280000     -35.29040000     -71.43510000
C      -44.07620000     -35.79220000     -70.77060000
S      -46.70940000     -34.03320000     -68.01950000
S      -44.07270000     -35.45660000     -69.08560000
H      -43.37340000     -36.42040000     -71.28470000
