40
Properties=species:S:1:pos:R:3 #=T CELL(abcABC):=T 1.889726e+02=T 90.00000=T Traj:=T positionsangstrom=T Step:=T 0=T Bead:=T pbc="F F F"
C      -43.23460000     -31.52910000     -73.67320000
C      -43.22490000     -32.35660000     -72.55050000
C      -44.09660000     -32.01560000     -71.53360000
C      -45.00500000     -30.89770000     -71.61140000
C      -44.93550000     -30.12350000     -72.74560000
C      -44.05630000     -30.41650000     -73.74010000
H      -42.58450000     -31.72640000     -74.52100000
H      -44.01250000     -32.57160000     -70.63350000
H      -45.68580000     -29.33230000     -72.89000000
H      -44.12560000     -29.68170000     -74.54770000
C      -46.01200000     -30.67010000     -70.54070000
H      -45.91970000     -29.65750000     -70.16550000
H      -45.86760000     -31.34810000     -69.69880000
C      -42.36250000     -33.59140000     -72.52480000
H      -41.32260000     -33.23530000     -72.64000000
H      -42.32950000     -34.06850000     -71.61280000
S      -47.82880000     -30.92130000     -71.07930000
S      -42.93130000     -34.73610000     -73.91760000
C      -47.59000000     -32.34880000     -72.20320000
H      -48.02430000     -31.96230000     -73.18710000
H      -46.54770000     -32.46930000     -72.44190000
C      -44.78610000     -34.66450000     -73.77350000
H      -45.08100000     -35.08570000     -74.73070000
H      -45.15870000     -33.68470000     -73.65520000
C      -45.42650000     -35.65460000     -72.80800000
H      -46.50610000     -35.68710000     -73.03540000
H      -45.11420000     -36.74110000     -72.90650000
C      -48.17080000     -33.62430000     -71.63330000
H      -48.27350000     -34.43860000     -72.32320000
H      -49.15480000     -33.48540000     -71.27590000
C      -47.41080000     -34.06680000     -70.47380000
C      -47.75000000     -33.66650000     -69.23980000
C      -46.14910000     -34.88220000     -70.38800000
H      -48.57640000     -33.00050000     -69.02180000
C      -45.56550000     -34.86120000     -69.13350000
C      -45.16720000     -35.38520000     -71.34610000
C      -43.97820000     -35.79000000     -70.77890000
S      -46.68250000     -34.08840000     -67.92910000
S      -43.95190000     -35.60250000     -68.98650000
H      -43.19950000     -36.28400000     -71.36680000
