40
Properties=species:S:1:pos:R:3 #=T CELL(abcABC):=T 1.889726e+02=T 90.00000=T Traj:=T positionsangstrom=T Step:=T 0=T Bead:=T pbc="F F F"
C      -42.08130000     -33.49610000     -69.31000000
C      -41.98390000     -33.82740000     -70.65230000
C      -42.56980000     -35.06190000     -71.04000000
C      -43.18230000     -35.93370000     -70.15580000
C      -43.23550000     -35.58810000     -68.82120000
C      -42.72540000     -34.33980000     -68.37060000
H      -41.64560000     -32.55080000     -68.98070000
H      -42.69840000     -35.24890000     -72.07430000
H      -43.62000000     -36.35980000     -68.18390000
H      -42.93990000     -33.93820000     -67.31890000
C      -43.75210000     -37.22630000     -70.75980000
H      -43.97420000     -37.84150000     -69.95500000
H      -42.96670000     -37.70460000     -71.37090000
C      -41.30520000     -32.90140000     -71.66650000
H      -41.00740000     -32.01650000     -71.05880000
H      -40.38130000     -33.40630000     -72.01640000
S      -45.14950000     -36.87680000     -71.95470000
S      -42.36290000     -32.36760000     -73.13740000
C      -46.38010000     -35.66260000     -71.39600000
H      -46.99740000     -35.43830000     -72.16250000
H      -47.07040000     -36.12090000     -70.61840000
C      -43.91850000     -31.77690000     -72.34720000
H      -43.87520000     -30.65470000     -72.35880000
H      -44.03850000     -32.09720000     -71.34010000
C      -45.11280000     -32.21740000     -73.25540000
H      -45.11330000     -31.92830000     -74.28800000
H      -45.15170000     -33.29710000     -73.35360000
C      -45.86210000     -34.37280000     -70.77310000
H      -45.12760000     -33.98270000     -71.34570000
H      -45.46660000     -34.41500000     -69.75060000
C      -47.04360000     -33.43150000     -70.78450000
C      -48.02830000     -33.50140000     -69.84300000
C      -47.20420000     -32.19930000     -71.54060000
H      -48.21920000     -34.26210000     -69.16740000
C      -48.36290000     -31.45250000     -71.24520000
C      -46.40430000     -31.69360000     -72.62810000
C      -47.06050000     -30.61880000     -73.22100000
S      -49.32450000     -32.25180000     -70.05330000
S      -48.46410000     -30.04500000     -72.26340000
H      -46.69430000     -29.96520000     -74.02200000
