40
Properties=species:S:1:pos:R:3 #=T CELL(abcABC):=T 1.889726e+02=T 90.00000=T Traj:=T positionsangstrom=T Step:=T 0=T Bead:=T pbc="F F F"
C      -41.98550000     -33.34490000     -69.28210000
C      -41.86280000     -33.68400000     -70.61420000
C      -42.46950000     -34.86740000     -71.10310000
C      -43.12530000     -35.74910000     -70.20090000
C      -43.18690000     -35.39720000     -68.85800000
C      -42.58230000     -34.23210000     -68.38440000
H      -41.63100000     -32.37090000     -68.98070000
H      -42.32710000     -35.12500000     -72.13840000
H      -43.82490000     -35.97660000     -68.19020000
H      -42.61620000     -34.01120000     -67.27680000
C      -43.75750000     -37.00910000     -70.61080000
H      -44.38710000     -37.44640000     -69.75780000
H      -43.10720000     -37.81790000     -71.02570000
C      -41.35400000     -32.65190000     -71.54410000
H      -41.23940000     -31.68800000     -71.08050000
H      -40.35320000     -32.84610000     -71.95340000
S      -44.95870000     -36.94890000     -72.05270000
S      -42.36730000     -32.47980000     -73.02490000
C      -46.37280000     -35.87130000     -71.50630000
H      -47.01940000     -35.66590000     -72.34820000
H      -46.88410000     -36.53700000     -70.78070000
C      -43.92710000     -31.96970000     -72.25570000
H      -43.83600000     -30.95780000     -71.86440000
H      -44.08650000     -32.54320000     -71.33230000
C      -45.15890000     -31.99670000     -73.20010000
H      -44.90290000     -31.37410000     -74.05000000
H      -45.29650000     -33.08400000     -73.44630000
C      -46.00760000     -34.58440000     -70.76370000
H      -45.13580000     -34.11310000     -71.13600000
H      -45.73260000     -34.86870000     -69.68770000
C      -47.06700000     -33.54770000     -70.86770000
C      -48.15440000     -33.62050000     -70.02210000
C      -47.19700000     -32.27300000     -71.57480000
H      -48.33980000     -34.37340000     -69.34740000
C      -48.44560000     -31.63380000     -71.41510000
C      -46.40220000     -31.55160000     -72.53080000
C      -47.01260000     -30.38030000     -72.96730000
S      -49.35420000     -32.32090000     -70.06110000
S      -48.66580000     -30.16750000     -72.35220000
H      -46.54550000     -29.63460000     -73.65610000
