40
Properties=species:S:1:pos:R:3 #=T CELL(abcABC):=T 1.889726e+02=T 90.00000=T Traj:=T positionsangstrom=T Step:=T 0=T Bead:=T pbc="F F F"
C      -41.95440000     -33.29390000     -69.12870000
C      -41.96900000     -33.53160000     -70.51290000
C      -42.49000000     -34.74290000     -70.95720000
C      -43.13770000     -35.62830000     -70.07170000
C      -43.20120000     -35.27820000     -68.71570000
C      -42.58620000     -34.13960000     -68.20470000
H      -41.47260000     -32.34620000     -68.85560000
H      -42.21790000     -35.09410000     -71.99430000
H      -43.62850000     -35.96450000     -67.94800000
H      -42.54340000     -33.99940000     -67.16830000
C      -43.77560000     -36.91400000     -70.62810000
H      -44.36390000     -37.36480000     -69.84210000
H      -43.00830000     -37.60260000     -70.84990000
C      -41.19570000     -32.71900000     -71.51060000
H      -40.76020000     -31.79130000     -71.08690000
H      -40.46210000     -33.38370000     -72.01630000
S      -44.78030000     -36.73950000     -72.13490000
S      -42.33850000     -32.37350000     -72.99410000
C      -46.30370000     -35.92530000     -71.59770000
H      -46.95080000     -35.95350000     -72.52690000
H      -46.79640000     -36.53840000     -70.87610000
C      -43.96410000     -31.74110000     -72.23450000
H      -43.86330000     -30.66120000     -72.10840000
H      -44.07100000     -32.21800000     -71.21360000
C      -45.07350000     -32.08740000     -73.18320000
H      -44.92810000     -31.44340000     -74.06060000
H      -45.10740000     -33.11500000     -73.55080000
C      -46.01290000     -34.53280000     -71.03380000
H      -45.38010000     -34.04530000     -71.83910000
H      -45.40920000     -34.51490000     -70.10650000
C      -47.22440000     -33.64190000     -70.89830000
C      -48.27320000     -33.81930000     -70.00000000
C      -47.35970000     -32.45730000     -71.66820000
H      -48.40400000     -34.68300000     -69.38360000
C      -48.50600000     -31.71490000     -71.35190000
C      -46.46350000     -31.71430000     -72.61520000
C      -47.13320000     -30.57560000     -73.09110000
S      -49.48210000     -32.50000000     -70.18010000
S      -48.57490000     -30.25980000     -72.25410000
H      -46.69900000     -30.01740000     -73.87860000
