40
Properties=species:S:1:pos:R:3 #=T CELL(abcABC):=T 1.889726e+02=T 90.00000=T Traj:=T positionsangstrom=T Step:=T 0=T Bead:=T pbc="F F F"
C      -42.12370000     -33.08100000     -69.07270000
C      -42.03430000     -33.44020000     -70.41750000
C      -42.45790000     -34.70570000     -70.87220000
C      -43.00700000     -35.63840000     -70.00800000
C      -43.05900000     -35.33730000     -68.63390000
C      -42.61940000     -34.05290000     -68.20360000
H      -41.83700000     -32.08590000     -68.79060000
H      -42.36320000     -34.86520000     -71.93550000
H      -43.46470000     -36.03830000     -67.93860000
H      -42.74240000     -33.76540000     -67.19320000
C      -43.63550000     -36.89090000     -70.62970000
H      -44.21310000     -37.36300000     -69.88710000
H      -42.85920000     -37.62630000     -70.92120000
C      -41.29830000     -32.47210000     -71.38800000
H      -41.08580000     -31.49760000     -70.89560000
H      -40.32290000     -32.92440000     -71.65930000
S      -44.63040000     -36.83210000     -72.15540000
S      -42.28570000     -32.14980000     -72.87590000
C      -46.01840000     -35.59130000     -71.97370000
H      -46.00970000     -35.07380000     -72.91060000
H      -46.97730000     -36.21620000     -71.96910000
C      -43.96870000     -31.64140000     -72.21810000
H      -43.98940000     -30.52110000     -71.89560000
H      -44.11950000     -32.18720000     -71.27560000
C      -45.09920000     -32.00570000     -73.13680000
H      -44.99420000     -31.47860000     -74.09840000
H      -45.08900000     -33.09210000     -73.47960000
C      -45.98070000     -34.51580000     -70.88480000
H      -45.04100000     -33.88480000     -71.04120000
H      -45.86100000     -34.90090000     -69.86380000
C      -47.28390000     -33.77310000     -70.88970000
C      -48.42080000     -34.08170000     -70.22720000
C      -47.38140000     -32.55550000     -71.74980000
H      -48.61730000     -34.98120000     -69.67570000
C      -48.58190000     -31.96340000     -71.49960000
C      -46.48420000     -31.70330000     -72.54480000
C      -47.04980000     -30.49750000     -72.85540000
S      -49.62980000     -32.84310000     -70.43420000
S      -48.67380000     -30.31660000     -72.18470000
H      -46.51080000     -29.76650000     -73.46280000
