40
Properties=species:S:1:pos:R:3 #=T CELL(abcABC):=T 1.889726e+02=T 90.00000=T Traj:=T positionsangstrom=T Step:=T 0=T Bead:=T pbc="F F F"
C      -41.97360000     -33.18030000     -69.01600000
C      -41.90550000     -33.41670000     -70.41010000
C      -42.53280000     -34.55860000     -70.94000000
C      -43.14170000     -35.50050000     -70.07350000
C      -43.24340000     -35.22950000     -68.71710000
C      -42.70460000     -34.03160000     -68.20870000
H      -41.60770000     -32.26970000     -68.63260000
H      -42.43360000     -34.75420000     -71.98180000
H      -43.78330000     -35.87850000     -68.04070000
H      -42.64040000     -33.81360000     -67.09120000
C      -43.64230000     -36.85620000     -70.51320000
H      -44.33560000     -37.22720000     -69.69640000
H      -42.78070000     -37.51750000     -70.57010000
C      -41.27530000     -32.37580000     -71.33300000
H      -41.23020000     -31.39830000     -70.87710000
H      -40.33690000     -32.73400000     -71.67350000
S      -44.44000000     -36.88850000     -72.27360000
S      -42.29230000     -31.98810000     -72.86890000
C      -45.92420000     -35.69790000     -72.16250000
H      -45.88040000     -35.02030000     -72.98690000
H      -46.84290000     -36.25860000     -72.28270000
C      -43.88320000     -31.44760000     -72.08910000
H      -43.97320000     -30.40450000     -72.18650000
H      -43.84830000     -31.72090000     -71.04210000
C      -45.08770000     -32.09850000     -72.85640000
H      -44.94970000     -31.84400000     -73.91420000
H      -45.00270000     -33.15880000     -72.70360000
C      -46.03760000     -34.77620000     -70.97010000
H      -45.10800000     -34.31360000     -70.84810000
H      -46.21770000     -35.42340000     -70.04880000
C      -47.26610000     -33.87500000     -71.03240000
C      -48.43800000     -34.19940000     -70.38720000
C      -47.34780000     -32.51190000     -71.62560000
H      -48.69640000     -35.04010000     -69.79020000
C      -48.56310000     -31.96260000     -71.36820000
C      -46.48260000     -31.63840000     -72.37930000
C      -47.12220000     -30.44640000     -72.71800000
S      -49.67270000     -32.93680000     -70.55100000
S      -48.78110000     -30.37820000     -72.14530000
H      -46.69500000     -29.61000000     -73.35780000
