40
Properties=species:S:1:pos:R:3 #=T CELL(abcABC):=T 1.889726e+02=T 90.00000=T Traj:=T positionsangstrom=T Step:=T 0=T Bead:=T pbc="F F F"
C      -42.11470000     -33.05760000     -69.12740000
C      -41.87160000     -33.39050000     -70.46660000
C      -42.39510000     -34.59640000     -70.97730000
C      -43.07730000     -35.44960000     -70.09450000
C      -43.23360000     -35.11570000     -68.70910000
C      -42.75550000     -33.94150000     -68.21990000
H      -41.72180000     -32.12200000     -68.67870000
H      -42.37210000     -34.72940000     -72.01540000
H      -43.76450000     -35.79290000     -67.99530000
H      -43.02180000     -33.52490000     -67.20150000
C      -43.72400000     -36.76570000     -70.56330000
H      -44.48590000     -37.21570000     -69.86530000
H      -43.02100000     -37.57500000     -70.57450000
C      -41.19230000     -32.42810000     -71.42610000
H      -40.60880000     -31.69760000     -70.85030000
H      -40.36710000     -32.93930000     -71.99460000
S      -44.38700000     -36.70920000     -72.24980000
S      -42.34530000     -31.69410000     -72.73990000
C      -45.97540000     -35.73320000     -72.29340000
H      -45.81600000     -35.24730000     -73.31230000
H      -46.78810000     -36.44160000     -72.40770000
C      -43.99490000     -31.23250000     -71.96820000
H      -44.18860000     -30.14450000     -71.95150000
H      -43.95970000     -31.65490000     -70.86560000
C      -45.03310000     -32.07850000     -72.74020000
H      -44.95990000     -31.83410000     -73.83360000
H      -44.83920000     -33.14590000     -72.67180000
C      -46.12300000     -34.87850000     -71.13790000
H      -45.27050000     -34.24800000     -70.94690000
H      -46.26640000     -35.57460000     -70.27540000
C      -47.32180000     -34.04600000     -71.10920000
C      -48.49740000     -34.41230000     -70.54220000
C      -47.34810000     -32.67740000     -71.59790000
H      -48.85390000     -35.29700000     -69.99340000
C      -48.58110000     -32.08950000     -71.36010000
C      -46.43460000     -31.81890000     -72.33000000
C      -46.99800000     -30.59570000     -72.64250000
S      -49.73890000     -33.17660000     -70.63760000
S      -48.66320000     -30.40450000     -71.99300000
H      -46.50670000     -29.79090000     -73.21460000
