40
Properties=species:S:1:pos:R:3 #=T CELL(abcABC):=T 1.889726e+02=T 90.00000=T Traj:=T positionsangstrom=T Step:=T 0=T Bead:=T pbc="F F F"
C      -43.06520000     -32.60200000     -73.43100000
C      -44.23660000     -32.82710000     -74.15350000
C      -44.91280000     -34.05150000     -73.97330000
C      -44.31220000     -35.06460000     -73.22230000
C      -43.08420000     -34.88970000     -72.51320000
C      -42.44310000     -33.69970000     -72.74910000
H      -42.55960000     -31.70230000     -73.49440000
H      -45.82890000     -34.29770000     -74.51100000
H      -42.56560000     -35.67170000     -71.91060000
H      -41.46690000     -33.36690000     -72.34470000
C      -44.90530000     -36.46750000     -73.33760000
H      -44.24270000     -37.22470000     -73.81940000
H      -45.76340000     -36.55560000     -73.99960000
C      -44.84070000     -31.66320000     -74.94010000
H      -44.21470000     -30.83050000     -74.98410000
H      -45.05880000     -31.96470000     -75.95230000
S      -45.41590000     -37.09920000     -71.64380000
S      -46.47850000     -30.98510000     -74.34380000
C      -47.05380000     -36.26090000     -71.21770000
H      -47.77730000     -36.44170000     -72.03780000
H      -47.43820000     -36.79790000     -70.30760000
C      -46.10870000     -30.69430000     -72.49670000
H      -46.14180000     -29.64510000     -72.21770000
H      -45.09730000     -31.05460000     -72.35280000
C      -46.96170000     -31.55500000     -71.62980000
H      -47.97060000     -31.02840000     -71.64230000
H      -47.21080000     -32.45410000     -72.22740000
C      -47.12270000     -34.71730000     -70.87220000
H      -48.16690000     -34.36630000     -70.56160000
H      -46.86630000     -34.10160000     -71.76880000
C      -46.22150000     -34.25940000     -69.74080000
C      -45.57610000     -35.07800000     -68.82030000
C      -45.95920000     -32.87850000     -69.57880000
H      -45.57580000     -36.14640000     -68.85710000
C      -45.25240000     -32.68570000     -68.42950000
C      -46.29230000     -31.67480000     -70.27670000
C      -45.93830000     -30.53130000     -69.64460000
S      -44.63810000     -34.09200000     -67.65900000
S      -45.02010000     -31.00470000     -68.07500000
H      -46.07430000     -29.51350000     -69.81350000
