40
Properties=species:S:1:pos:R:3 #=T CELL(abcABC):=T 1.889726e+02=T 90.00000=T Traj:=T positionsangstrom=T Step:=T 0=T Bead:=T pbc="F F F"
C      -42.30760000     -33.32270000     -68.90480000
C      -42.02320000     -33.15700000     -70.30550000
C      -42.25150000     -34.25050000     -71.11570000
C      -42.73690000     -35.47810000     -70.69140000
C      -43.08300000     -35.59410000     -69.33530000
C      -42.94840000     -34.47590000     -68.53440000
H      -42.13400000     -32.56360000     -68.10730000
H      -41.98510000     -34.14310000     -72.20250000
H      -43.47650000     -36.50300000     -68.91800000
H      -43.19530000     -34.61950000     -67.48960000
C      -42.98020000     -36.65980000     -71.62680000
H      -43.54130000     -37.45470000     -71.03440000
H      -42.02130000     -37.02120000     -71.99170000
C      -41.56210000     -31.83190000     -70.92970000
H      -41.61660000     -31.02240000     -70.19470000
H      -40.55050000     -31.83680000     -71.36290000
S      -44.22050000     -36.48250000     -73.04590000
S      -42.58410000     -31.35620000     -72.38110000
C      -45.76780000     -35.77060000     -72.35640000
H      -46.20740000     -35.17070000     -73.17600000
H      -46.49760000     -36.44280000     -71.90850000
C      -44.25940000     -31.20040000     -71.62220000
H      -44.35420000     -30.17780000     -71.24460000
H      -44.49560000     -31.99760000     -70.91270000
C      -45.33910000     -31.36950000     -72.72580000
H      -45.38470000     -30.48260000     -73.32680000
H      -45.04530000     -32.25250000     -73.32800000
C      -45.50760000     -34.68020000     -71.24030000
H      -44.78940000     -33.97310000     -71.60890000
H      -45.26080000     -35.25860000     -70.34300000
C      -46.81720000     -33.95230000     -70.97240000
C      -47.82810000     -34.48770000     -70.22730000
C      -47.30880000     -32.69880000     -71.48890000
H      -47.75390000     -35.41890000     -69.65000000
C      -48.70800000     -32.45080000     -71.25790000
C      -46.74020000     -31.54010000     -72.18910000
C      -47.64790000     -30.51580000     -72.35480000
S      -49.39730000     -33.70720000     -70.28100000
S      -49.28630000     -30.86080000     -71.66460000
H      -47.43850000     -29.58030000     -72.90440000
