40
Properties=species:S:1:pos:R:3 #=T CELL(abcABC):=T 1.889726e+02=T 90.00000=T Traj:=T positionsangstrom=T Step:=T 0=T Bead:=T pbc="F F F"
C      -43.21800000     -32.15740000     -74.32190000
C      -43.61000000     -33.10970000     -73.32060000
C      -43.82030000     -32.64120000     -72.02190000
C      -43.70110000     -31.26040000     -71.64860000
C      -43.34190000     -30.35110000     -72.69400000
C      -43.04320000     -30.80100000     -73.95390000
H      -43.09290000     -32.54300000     -75.30350000
H      -44.15510000     -33.35270000     -71.26550000
H      -43.25820000     -29.25630000     -72.45670000
H      -42.83280000     -30.03530000     -74.72610000
C      -44.08850000     -30.89410000     -70.23580000
H      -43.48620000     -30.14090000     -69.77020000
H      -44.31290000     -31.79820000     -69.60580000
C      -43.68450000     -34.52080000     -73.68090000
H      -42.91940000     -34.80910000     -74.37330000
H      -43.46260000     -35.17530000     -72.82720000
S      -45.66140000     -29.86490000     -70.29330000
S      -45.28900000     -34.99000000     -74.42370000
C      -46.68560000     -31.02280000     -71.27080000
H      -47.38710000     -30.40390000     -71.87460000
H      -46.07180000     -31.41130000     -72.08020000
C      -46.57710000     -34.00450000     -73.61320000
H      -47.29400000     -33.58390000     -74.34650000
H      -46.03430000     -33.27410000     -73.03280000
C      -47.37620000     -34.86300000     -72.54350000
H      -48.20810000     -34.22870000     -72.16140000
H      -47.88710000     -35.74080000     -72.89210000
C      -47.45850000     -32.18650000     -70.48710000
H      -48.15530000     -32.63170000     -71.25370000
H      -48.24600000     -31.80630000     -69.85440000
C      -46.64190000     -33.12520000     -69.73890000
C      -46.29210000     -32.91630000     -68.45060000
C      -46.31800000     -34.49600000     -70.20320000
H      -46.35120000     -31.92090000     -67.96280000
C      -45.68500000     -35.22580000     -69.21200000
C      -46.58210000     -35.24370000     -71.38710000
C      -46.07770000     -36.51150000     -71.31030000
S      -45.43630000     -34.26060000     -67.75170000
S      -45.21490000     -36.84700000     -69.75700000
H      -46.32080000     -37.26950000     -72.09190000
