40
Properties=species:S:1:pos:R:3 #=T CELL(abcABC):=T 1.889726e+02=T 90.00000=T Traj:=T positionsangstrom=T Step:=T 0=T Bead:=T pbc="F F F"
C      -45.39210000     -30.00100000     -69.75730000
C      -46.71880000     -30.44000000     -69.86930000
C      -47.17470000     -30.73220000     -71.18000000
C      -46.47080000     -30.44560000     -72.32910000
C      -45.13780000     -29.96740000     -72.18920000
C      -44.62980000     -29.71840000     -70.87470000
H      -44.98970000     -29.84940000     -68.75080000
H      -48.20190000     -31.20940000     -71.29900000
H      -44.39930000     -30.01380000     -72.99360000
H      -43.64510000     -29.29080000     -70.77970000
C      -47.02520000     -30.74370000     -73.66760000
H      -46.33490000     -30.54250000     -74.53400000
H      -47.96890000     -30.12570000     -73.78930000
C      -47.62010000     -30.80530000     -68.67220000
H      -47.36210000     -30.18840000     -67.80920000
H      -48.70070000     -30.76920000     -69.08780000
S      -47.47080000     -32.53110000     -73.89030000
S      -47.50240000     -32.62310000     -68.19410000
C      -45.90360000     -33.31390000     -73.38880000
H      -45.14230000     -33.17670000     -74.18360000
H      -45.45360000     -32.78390000     -72.58380000
C      -45.88780000     -33.30880000     -68.67430000
H      -45.58010000     -33.94690000     -67.91440000
H      -45.20090000     -32.49150000     -68.76850000
C      -45.99750000     -34.30640000     -69.95020000
H      -46.62100000     -35.11620000     -69.62500000
H      -46.47970000     -33.90840000     -70.84130000
C      -46.20210000     -34.73510000     -73.14030000
H      -46.75760000     -35.21090000     -73.97220000
H      -46.94480000     -34.77920000     -72.30740000
C      -44.93190000     -35.53420000     -72.81350000
C      -44.11420000     -36.05220000     -73.85630000
C      -44.26750000     -35.42860000     -71.60170000
H      -44.44240000     -36.22570000     -74.88010000
C      -43.00650000     -36.03280000     -71.56850000
C      -44.63500000     -34.94720000     -70.21490000
C      -43.55240000     -35.04900000     -69.39350000
S      -42.53870000     -36.58520000     -73.17170000
S      -42.15650000     -35.80030000     -70.05490000
H      -43.53660000     -34.49290000     -68.46310000
