40
Properties=species:S:1:pos:R:3 #=T CELL(abcABC):=T 1.889726e+02=T 90.00000=T Traj:=T positionsangstrom=T Step:=T 0=T Bead:=T pbc="F F F"
C      -42.37040000     -33.44380000     -68.77280000
C      -42.24480000     -33.02990000     -70.11720000
C      -42.38090000     -34.06060000     -71.13030000
C      -42.63820000     -35.39830000     -70.69320000
C      -42.71470000     -35.72940000     -69.29700000
C      -42.64390000     -34.74620000     -68.35380000
H      -42.54320000     -32.61980000     -68.07340000
H      -42.26320000     -33.77980000     -72.17930000
H      -42.86330000     -36.78650000     -69.12970000
H      -42.73320000     -34.97700000     -67.33040000
C      -42.62620000     -36.54290000     -71.64360000
H      -43.11350000     -37.38530000     -71.17610000
H      -41.65600000     -36.91020000     -72.01840000
C      -41.80400000     -31.60830000     -70.46210000
H      -41.74060000     -31.02990000     -69.48350000
H      -40.87570000     -31.70090000     -71.02600000
S      -43.57050000     -36.13580000     -73.16650000
S      -42.89510000     -30.72740000     -71.63280000
C      -45.29180000     -35.99680000     -72.57330000
H      -45.93240000     -36.24550000     -73.43130000
H      -45.47210000     -36.65630000     -71.75870000
C      -44.60200000     -31.29690000     -71.20300000
H      -44.90200000     -30.70320000     -70.33020000
H      -44.67300000     -32.37480000     -70.96090000
C      -45.47180000     -31.12490000     -72.46470000
H      -45.45340000     -30.03830000     -72.75930000
H      -45.08440000     -31.71250000     -73.29050000
C      -45.61410000     -34.54990000     -72.16440000
H      -45.22920000     -33.85650000     -72.93910000
H      -44.99940000     -34.37440000     -71.21940000
C      -47.03990000     -34.15460000     -71.82480000
C      -48.00360000     -35.06740000     -71.41480000
C      -47.44140000     -32.76500000     -71.73370000
H      -47.88170000     -36.13970000     -71.42660000
C      -48.78980000     -32.70710000     -71.37670000
C      -46.88840000     -31.46960000     -72.01630000
C      -47.76560000     -30.47630000     -71.62310000
S      -49.51500000     -34.19430000     -71.03960000
S      -49.34270000     -31.04860000     -71.14810000
H      -47.44520000     -29.47260000     -71.68600000
