40
Properties=species:S:1:pos:R:3 #=T CELL(abcABC):=T 1.889726e+02=T 90.00000=T Traj:=T positionsangstrom=T Step:=T 0=T Bead:=T pbc="F F F"
C      -42.45530000     -33.42940000     -68.70930000
C      -42.13840000     -33.08800000     -70.00490000
C      -42.06670000     -34.04260000     -71.02180000
C      -42.31830000     -35.38210000     -70.72330000
C      -42.64280000     -35.76750000     -69.46050000
C      -42.71440000     -34.82680000     -68.43850000
H      -42.35400000     -32.79960000     -67.81210000
H      -41.88100000     -33.76620000     -72.06620000
H      -42.97040000     -36.81010000     -69.29380000
H      -42.87300000     -35.17420000     -67.43860000
C      -42.25410000     -36.42320000     -71.88690000
H      -42.52170000     -37.39540000     -71.52150000
H      -41.21100000     -36.52380000     -72.35010000
C      -41.84130000     -31.61040000     -70.33660000
H      -42.07880000     -30.98140000     -69.43760000
H      -40.82650000     -31.48780000     -70.69130000
S      -43.50670000     -36.08920000     -73.15970000
S      -43.00370000     -31.15460000     -71.76640000
C      -45.14360000     -35.68560000     -72.32860000
H      -45.93340000     -36.39370000     -72.63780000
H      -44.87670000     -35.82550000     -71.28890000
C      -44.75220000     -31.23260000     -71.09500000
H      -44.79510000     -30.79960000     -70.10820000
H      -44.89790000     -32.30710000     -70.87710000
C      -45.68280000     -30.71410000     -72.14300000
H      -45.64730000     -29.63310000     -72.31390000
H      -45.47700000     -31.24560000     -73.09450000
C      -45.61890000     -34.25920000     -72.52990000
H      -45.72890000     -34.04480000     -73.57440000
H      -44.86940000     -33.56830000     -72.07510000
C      -46.95180000     -34.00400000     -71.92430000
C      -47.81300000     -35.01850000     -71.67170000
C      -47.52430000     -32.62730000     -71.80210000
H      -47.68550000     -36.11280000     -71.55230000
C      -48.84030000     -32.74650000     -71.42990000
C      -47.06570000     -31.20050000     -71.75190000
C      -48.06810000     -30.36880000     -71.24080000
S      -49.39810000     -34.37280000     -71.33760000
S      -49.58060000     -31.22330000     -70.88850000
H      -48.19300000     -29.29830000     -71.19190000
