40
Properties=species:S:1:pos:R:3 #=T CELL(abcABC):=T 1.889726e+02=T 90.00000=T Traj:=T positionsangstrom=T Step:=T 0=T Bead:=T pbc="F F F"
C      -41.22000000     -35.52220000     -70.77570000
C      -42.50570000     -35.42510000     -70.23200000
C      -43.52310000     -35.88260000     -71.08170000
C      -43.25120000     -36.15900000     -72.42210000
C      -41.94800000     -36.15580000     -72.90920000
C      -40.83600000     -35.93900000     -72.06170000
H      -40.29700000     -35.29170000     -70.08080000
H      -44.54880000     -35.82070000     -70.78100000
H      -41.84660000     -36.24050000     -73.99500000
H      -39.86550000     -35.95910000     -72.49660000
C      -44.42690000     -36.48640000     -73.38520000
H      -45.34240000     -36.74420000     -72.82730000
H      -44.04440000     -37.38520000     -73.98130000
C      -42.74860000     -34.77420000     -68.82750000
H      -43.53440000     -35.16490000     -68.20500000
H      -41.87380000     -35.12320000     -68.27840000
S      -44.69990000     -35.08950000     -74.54980000
S      -42.86040000     -32.94460000     -68.91840000
C      -45.30900000     -33.70790000     -73.52540000
H      -44.45480000     -33.44050000     -72.92390000
H      -45.66030000     -32.85310000     -74.15690000
C      -44.28550000     -32.65390000     -70.01590000
H      -44.05300000     -33.16670000     -70.99720000
H      -44.38840000     -31.59590000     -70.11110000
C      -45.64060000     -33.11800000     -69.34060000
H      -45.80570000     -34.12490000     -69.75830000
H      -45.48950000     -33.19420000     -68.26560000
C      -46.47530000     -33.99300000     -72.52730000
H      -46.01630000     -34.20210000     -71.59060000
H      -47.14290000     -34.81700000     -72.76420000
C      -47.31920000     -32.76400000     -72.22930000
C      -48.15760000     -32.24260000     -73.13750000
C      -47.37640000     -32.08020000     -70.94770000
H      -48.28620000     -32.55820000     -74.18610000
C      -48.15820000     -30.93810000     -70.99880000
C      -46.78420000     -32.24510000     -69.62270000
C      -47.14770000     -31.36090000     -68.71330000
S      -48.98180000     -30.80360000     -72.54390000
S      -48.33860000     -30.16010000     -69.43000000
H      -46.97530000     -31.21830000     -67.63100000
