40
Properties=species:S:1:pos:R:3 #=T CELL(abcABC):=T 1.889726e+02=T 90.00000=T Traj:=T positionsangstrom=T Step:=T 0=T Bead:=T pbc="F F F"
C      -42.81780000     -33.02400000     -68.69470000
C      -42.10480000     -32.66050000     -69.90170000
C      -41.89740000     -33.67280000     -70.85320000
C      -42.23820000     -35.04420000     -70.64870000
C      -42.76200000     -35.36810000     -69.43230000
C      -43.11300000     -34.35910000     -68.51600000
H      -43.16760000     -32.29790000     -68.04120000
H      -41.37800000     -33.48480000     -71.81400000
H      -43.10730000     -36.39910000     -69.25990000
H      -43.64750000     -34.59560000     -67.58920000
C      -42.18040000     -36.04790000     -71.79270000
H      -42.44650000     -37.09490000     -71.51790000
H      -41.19730000     -36.01410000     -72.21840000
C      -41.82380000     -31.24710000     -70.18470000
H      -42.03470000     -30.65790000     -69.28880000
H      -40.83130000     -31.16090000     -70.69760000
S      -43.33700000     -35.57430000     -73.22740000
S      -42.98940000     -30.73430000     -71.61910000
C      -44.95130000     -35.61050000     -72.42180000
H      -45.47030000     -36.56880000     -72.45690000
H      -44.79820000     -35.41650000     -71.35230000
C      -44.49820000     -31.75920000     -71.32860000
H      -44.67180000     -31.60090000     -70.24070000
H      -44.21600000     -32.79990000     -71.55510000
C      -45.68550000     -31.22200000     -72.18630000
H      -45.70650000     -30.13220000     -72.12670000
H      -45.57820000     -31.47810000     -73.19110000
C      -45.89380000     -34.66460000     -73.11450000
H      -46.15540000     -35.16330000     -74.03630000
H      -45.45380000     -33.67430000     -73.37130000
C      -47.12350000     -34.36520000     -72.26800000
C      -48.08690000     -35.36290000     -72.01120000
C      -47.52160000     -33.09360000     -71.77210000
H      -47.96920000     -36.33400000     -72.45580000
C      -48.81230000     -33.11240000     -71.22520000
C      -46.99430000     -31.71370000     -71.72360000
C      -47.81500000     -30.82920000     -71.07740000
S      -49.55970000     -34.68610000     -71.34110000
S      -49.42270000     -31.55610000     -70.62780000
H      -47.62880000     -29.78990000     -71.03670000
