40
Properties=species:S:1:pos:R:3 #=T CELL(abcABC):=T 1.889726e+02=T 90.00000=T Traj:=T positionsangstrom=T Step:=T 0=T Bead:=T pbc="F F F"
C      -42.89300000     -33.04620000     -68.70850000
C      -42.23370000     -32.63840000     -69.83530000
C      -41.81170000     -33.63630000     -70.75860000
C      -42.15420000     -34.98200000     -70.67690000
C      -42.77110000     -35.39950000     -69.47190000
C      -43.12210000     -34.41110000     -68.51990000
H      -42.98620000     -32.22350000     -67.88780000
H      -41.32540000     -33.19940000     -71.61830000
H      -43.06340000     -36.42020000     -69.30290000
H      -43.75740000     -34.64000000     -67.66410000
C      -41.98030000     -35.94120000     -71.82780000
H      -42.24200000     -36.98270000     -71.62580000
H      -40.92360000     -35.79840000     -72.15410000
C      -41.94910000     -31.23200000     -70.22090000
H      -42.22040000     -30.49430000     -69.39290000
H      -40.92600000     -31.06260000     -70.52180000
S      -43.21900000     -35.47100000     -73.21250000
S      -43.06120000     -30.90550000     -71.71370000
C      -44.79290000     -35.14350000     -72.26960000
H      -45.01620000     -36.18530000     -71.94450000
H      -44.68890000     -34.56840000     -71.32670000
C      -44.69000000     -31.28890000     -71.08680000
H      -45.03200000     -30.60630000     -70.33800000
H      -44.81890000     -32.14410000     -70.49010000
C      -45.76640000     -31.20120000     -72.24200000
H      -45.97240000     -30.21380000     -72.64190000
H      -45.45820000     -31.81210000     -73.06650000
C      -45.90450000     -34.54700000     -73.17310000
H      -46.00390000     -35.24630000     -73.96380000
H      -45.63770000     -33.62770000     -73.61790000
C      -47.11270000     -34.33850000     -72.41040000
C      -47.96640000     -35.38530000     -72.18410000
C      -47.58120000     -33.11050000     -71.79750000
H      -47.93980000     -36.47850000     -72.55640000
C      -48.83210000     -33.25710000     -71.23370000
C      -47.09290000     -31.73100000     -71.74620000
C      -48.02650000     -30.91440000     -71.18370000
S      -49.42740000     -34.83470000     -71.31730000
S      -49.44700000     -31.79430000     -70.53060000
H      -48.04700000     -29.84620000     -71.13500000
