40
Properties=species:S:1:pos:R:3 #=T CELL(abcABC):=T 1.889726e+02=T 90.00000=T Traj:=T positionsangstrom=T Step:=T 0=T Bead:=T pbc="F F F"
C      -42.73590000     -32.95120000     -68.49730000
C      -42.43500000     -32.53610000     -69.81290000
C      -42.23100000     -33.58610000     -70.78630000
C      -42.25420000     -34.92570000     -70.49970000
C      -42.55160000     -35.33030000     -69.17380000
C      -42.71450000     -34.32350000     -68.21840000
H      -42.77520000     -32.33680000     -67.69330000
H      -41.86640000     -33.33780000     -71.76300000
H      -42.45450000     -36.33910000     -68.93130000
H      -42.95080000     -34.73940000     -67.21400000
C      -42.17040000     -35.95860000     -71.59520000
H      -42.55180000     -36.87350000     -71.16320000
H      -41.16920000     -36.15390000     -72.00980000
C      -42.24480000     -31.04950000     -70.19110000
H      -42.24690000     -30.45810000     -69.25000000
H      -41.18640000     -31.01220000     -70.51960000
S      -43.09510000     -35.46840000     -73.12270000
S      -43.33090000     -30.48230000     -71.50520000
C      -44.55370000     -34.47790000     -72.55030000
H      -44.77130000     -34.86760000     -71.57230000
H      -44.11090000     -33.50550000     -72.44520000
C      -44.99460000     -31.10960000     -71.00600000
H      -45.36560000     -30.54000000     -70.14560000
H      -44.97410000     -32.11930000     -70.51940000
C      -45.91710000     -31.14510000     -72.23020000
H      -46.16670000     -30.19730000     -72.68740000
H      -45.42580000     -31.71320000     -72.99930000
C      -45.73940000     -34.44230000     -73.52850000
H      -45.77200000     -35.37660000     -74.06090000
H      -45.71380000     -33.60520000     -74.16740000
C      -47.04170000     -34.38060000     -72.74810000
C      -47.79280000     -35.50640000     -72.57800000
C      -47.55200000     -33.21750000     -72.07010000
H      -47.63940000     -36.43400000     -73.04100000
C      -48.65680000     -33.57180000     -71.29650000
C      -47.21230000     -31.82320000     -71.80370000
C      -48.09780000     -31.13450000     -71.01080000
S      -49.19050000     -35.20920000     -71.50490000
S      -49.48740000     -32.17910000     -70.55740000
H      -47.97750000     -30.07970000     -70.75400000
