40
Properties=species:S:1:pos:R:3 #=T CELL(abcABC):=T 1.889726e+02=T 90.00000=T Traj:=T positionsangstrom=T Step:=T 0=T Bead:=T pbc="F F F"
C      -43.93550000     -32.25230000     -74.55670000
C      -44.33270000     -33.26090000     -73.65930000
C      -44.04290000     -33.04560000     -72.29300000
C      -43.35700000     -31.85460000     -71.92220000
C      -42.89540000     -30.90450000     -72.83300000
C      -43.24640000     -31.08830000     -74.16840000
H      -43.93850000     -32.47530000     -75.62640000
H      -44.35650000     -33.73140000     -71.54800000
H      -42.27460000     -30.12460000     -72.43570000
H      -42.94770000     -30.33600000     -74.81750000
C      -43.09120000     -31.63200000     -70.43610000
H      -42.10030000     -31.16670000     -70.38300000
H      -43.11180000     -32.56150000     -69.87570000
C      -45.19450000     -34.37660000     -74.12530000
H      -44.70940000     -34.68720000     -75.08100000
H      -45.24410000     -35.27560000     -73.44940000
S      -44.36890000     -30.52680000     -69.67730000
S      -46.88910000     -33.72710000     -74.59150000
C      -46.01940000     -30.87040000     -70.48630000
H      -46.46370000     -29.86810000     -70.65330000
H      -45.77660000     -31.28880000     -71.45620000
C      -47.49460000     -33.01360000     -72.98520000
H      -48.40540000     -32.36460000     -73.30460000
H      -46.74380000     -32.34260000     -72.71500000
C      -47.98870000     -34.15230000     -71.98030000
H      -48.58760000     -33.69470000     -71.22570000
H      -48.79580000     -34.80550000     -72.45900000
C      -46.80040000     -31.77140000     -69.55010000
H      -47.88440000     -31.86700000     -69.93310000
H      -46.96750000     -31.32110000     -68.58270000
C      -46.20730000     -33.17940000     -69.28810000
C      -45.42160000     -33.33740000     -68.14490000
C      -46.20870000     -34.39980000     -70.07500000
H      -45.25480000     -32.58970000     -67.31900000
C      -45.46510000     -35.42070000     -69.50360000
C      -46.85090000     -34.89330000     -71.28980000
C      -46.58000000     -36.19380000     -71.56790000
S      -44.56340000     -34.83570000     -68.13650000
S      -45.39440000     -36.82250000     -70.42870000
H      -47.09610000     -36.72120000     -72.31210000
