40
Properties=species:S:1:pos:R:3 #=T CELL(abcABC):=T 1.889726e+02=T 90.00000=T Traj:=T positionsangstrom=T Step:=T 0=T Bead:=T pbc="F F F"
C      -43.97520000     -32.12620000     -74.74950000
C      -44.31150000     -33.19020000     -73.88210000
C      -44.03510000     -33.05370000     -72.54150000
C      -43.40430000     -31.84700000     -72.04230000
C      -43.13300000     -30.77880000     -72.94360000
C      -43.39850000     -30.96210000     -74.29670000
H      -44.16640000     -32.22200000     -75.82060000
H      -44.09100000     -33.99540000     -71.95780000
H      -42.60460000     -29.90250000     -72.71740000
H      -43.12530000     -30.28210000     -75.03680000
C      -43.15780000     -31.68720000     -70.61070000
H      -42.21630000     -31.32680000     -70.38990000
H      -43.22100000     -32.72520000     -70.13850000
C      -44.90440000     -34.52720000     -74.39140000
H      -44.61990000     -34.65620000     -75.44490000
H      -44.33040000     -35.22610000     -73.81510000
S      -44.34880000     -30.50470000     -69.83660000
S      -46.75850000     -34.57630000     -74.36810000
C      -46.04840000     -30.95650000     -70.41730000
H      -46.65600000     -30.06180000     -70.63740000
H      -45.96760000     -31.69390000     -71.26630000
C      -47.33310000     -33.22270000     -73.28060000
H      -48.10850000     -32.64810000     -73.82810000
H      -46.63360000     -32.42580000     -72.98520000
C      -48.03000000     -33.76820000     -71.95560000
H      -48.43140000     -32.88140000     -71.43740000
H      -48.86990000     -34.43150000     -72.23120000
C      -46.71190000     -31.70200000     -69.25890000
H      -47.83300000     -31.77440000     -69.31750000
H      -46.56340000     -31.05930000     -68.36780000
C      -46.09530000     -33.03710000     -68.98040000
C      -45.32470000     -33.31200000     -67.89410000
C      -46.25610000     -34.17220000     -69.84990000
H      -45.06490000     -32.56880000     -67.07310000
C      -45.33560000     -35.16790000     -69.51280000
C      -47.03240000     -34.55750000     -71.07930000
C      -46.79420000     -35.86560000     -71.42120000
S      -44.49310000     -34.84870000     -68.02010000
S      -45.58730000     -36.65260000     -70.47150000
H      -47.27720000     -36.42530000     -72.19960000
