40
Properties=species:S:1:pos:R:3 #=T CELL(abcABC):=T 1.889726e+02=T 90.00000=T Traj:=T positionsangstrom=T Step:=T 0=T Bead:=T pbc="F F F"
C      -44.11920000     -32.16000000     -74.79510000
C      -44.18540000     -33.21070000     -73.85790000
C      -43.82340000     -32.96820000     -72.52990000
C      -43.47310000     -31.65550000     -72.08600000
C      -43.37000000     -30.67770000     -73.08910000
C      -43.65020000     -30.90200000     -74.42780000
H      -44.44720000     -32.23740000     -75.84700000
H      -43.74410000     -33.75510000     -71.80930000
H      -42.88270000     -29.68250000     -72.83920000
H      -43.58580000     -30.08650000     -75.15600000
C      -43.17280000     -31.37280000     -70.67350000
H      -42.20710000     -30.88130000     -70.43960000
H      -43.20380000     -32.32110000     -70.20670000
C      -44.82710000     -34.46200000     -74.29170000
H      -44.32730000     -34.71330000     -75.23250000
H      -44.62690000     -35.21520000     -73.49630000
S      -44.42700000     -30.23070000     -69.90400000
S      -46.72390000     -34.31950000     -74.61820000
C      -46.02390000     -30.91250000     -70.54670000
H      -46.54450000     -29.99550000     -70.78490000
H      -45.71820000     -31.42310000     -71.49900000
C      -47.35500000     -33.32720000     -73.19760000
H      -48.13780000     -32.76840000     -73.65990000
H      -46.67130000     -32.56100000     -72.93370000
C      -47.82320000     -33.99790000     -71.90610000
H      -48.23610000     -33.16300000     -71.31460000
H      -48.61200000     -34.67180000     -72.21810000
C      -46.66200000     -31.76990000     -69.44340000
H      -47.70630000     -31.90730000     -69.74070000
H      -46.68180000     -31.13860000     -68.58290000
C      -46.00880000     -33.08560000     -69.16950000
C      -45.36340000     -33.22810000     -67.96830000
C      -46.10240000     -34.37700000     -69.90360000
H      -45.21140000     -32.51330000     -67.17110000
C      -45.39940000     -35.42310000     -69.29740000
C      -46.84880000     -34.81230000     -71.08340000
C      -46.72810000     -36.16470000     -71.23790000
S      -44.59920000     -34.89890000     -67.86850000
S      -45.56510000     -36.93970000     -70.14650000
H      -47.29310000     -36.60350000     -72.06760000
