40
Properties=species:S:1:pos:R:3 #=T CELL(abcABC):=T 1.889726e+02=T 90.00000=T Traj:=T positionsangstrom=T Step:=T 0=T Bead:=T pbc="F F F"
C      -43.36430000     -32.59080000     -68.16900000
C      -43.05580000     -31.94960000     -69.38320000
C      -42.39650000     -32.68180000     -70.37150000
C      -42.15400000     -34.03540000     -70.16840000
C      -42.36290000     -34.67970000     -68.94230000
C      -43.03050000     -33.95920000     -67.97370000
H      -43.75460000     -32.07760000     -67.27690000
H      -42.20720000     -32.19090000     -71.38370000
H      -42.15330000     -35.75260000     -68.88060000
H      -43.30130000     -34.33490000     -66.93370000
C      -41.55840000     -34.92040000     -71.32260000
H      -41.65160000     -35.94460000     -71.10030000
H      -40.44210000     -34.74930000     -71.34550000
C      -43.31770000     -30.44040000     -69.47220000
H      -43.99820000     -30.21310000     -68.61870000
H      -42.37070000     -29.84700000     -69.30610000
S      -42.50250000     -34.66810000     -72.85830000
S      -43.89280000     -29.91730000     -71.16250000
C      -44.29480000     -35.16280000     -72.39000000
H      -44.29740000     -36.25730000     -72.21270000
H      -44.48490000     -34.53640000     -71.48290000
C      -45.59880000     -30.45110000     -71.07440000
H      -46.19000000     -29.66080000     -71.59620000
H      -45.79120000     -30.43270000     -70.02370000
C      -45.73600000     -31.86120000     -71.64930000
H      -45.73740000     -31.62890000     -72.75980000
H      -44.87370000     -32.44020000     -71.33100000
C      -45.22800000     -34.69910000     -73.54250000
H      -45.15010000     -35.27100000     -74.48250000
H      -44.93240000     -33.64580000     -73.75460000
C      -46.61290000     -34.85300000     -73.02410000
C      -47.33860000     -35.97420000     -73.28660000
C      -47.29820000     -33.89720000     -72.14830000
H      -47.09150000     -36.79930000     -73.94370000
C      -48.62720000     -34.23600000     -72.00710000
C      -47.02010000     -32.59790000     -71.53300000
C      -48.08010000     -32.15900000     -70.78040000
S      -49.00620000     -35.85640000     -72.61460000
S      -49.58940000     -33.10370000     -71.07230000
H      -48.14720000     -31.16710000     -70.23670000
