40
Properties=species:S:1:pos:R:3 #=T CELL(abcABC):=T 1.889726e+02=T 90.00000=T Traj:=T positionsangstrom=T Step:=T 0=T Bead:=T pbc="F F F"
C      -43.67630000     -32.04570000     -74.56630000
C      -44.22310000     -33.03810000     -73.68690000
C      -44.06330000     -32.90030000     -72.27330000
C      -43.43630000     -31.75280000     -71.84740000
C      -42.94850000     -30.73370000     -72.73360000
C      -43.10550000     -30.88030000     -74.06660000
H      -43.83150000     -32.13770000     -75.60960000
H      -44.24180000     -33.67230000     -71.54030000
H      -42.39920000     -29.85820000     -72.31500000
H      -42.64720000     -30.30940000     -74.96490000
C      -43.22370000     -31.48110000     -70.32690000
H      -42.24540000     -30.89370000     -70.25510000
H      -43.28010000     -32.37420000     -69.75900000
C      -44.86710000     -34.39040000     -74.14240000
H      -44.41440000     -34.72150000     -75.06530000
H      -44.66560000     -35.11380000     -73.37160000
S      -44.53970000     -30.38190000     -69.52980000
S      -46.65110000     -34.12780000     -74.57280000
C      -46.14250000     -30.84000000     -70.34620000
H      -46.61440000     -29.88870000     -70.34650000
H      -46.05850000     -31.13100000     -71.39600000
C      -47.34350000     -33.19890000     -73.17790000
H      -48.03440000     -32.45820000     -73.62930000
H      -46.53240000     -32.53310000     -72.83120000
C      -48.03290000     -34.14630000     -72.09220000
H      -48.43890000     -33.41760000     -71.35200000
H      -48.87420000     -34.71800000     -72.55410000
C      -46.91950000     -31.90980000     -69.56270000
H      -47.92900000     -32.07740000     -70.02580000
H      -47.10390000     -31.36670000     -68.58370000
C      -46.22200000     -33.19480000     -69.27640000
C      -45.20630000     -33.24980000     -68.33930000
C      -46.32760000     -34.46960000     -70.05060000
H      -45.13930000     -32.45200000     -67.58780000
C      -45.39960000     -35.42820000     -69.62920000
C      -47.07990000     -34.95400000     -71.27080000
C      -46.78490000     -36.22250000     -71.61560000
S      -44.47560000     -34.80640000     -68.23160000
S      -45.63190000     -36.94160000     -70.43030000
H      -47.13460000     -36.76130000     -72.54810000
