40
Properties=species:S:1:pos:R:3 #=T CELL(abcABC):=T 1.889726e+02=T 90.00000=T Traj:=T positionsangstrom=T Step:=T 0=T Bead:=T pbc="F F F"
C      -43.71060000     -32.14870000     -74.46040000
C      -44.09780000     -33.15440000     -73.57500000
C      -43.92210000     -32.97070000     -72.16930000
C      -43.37080000     -31.76900000     -71.68220000
C      -42.93020000     -30.81500000     -72.55670000
C      -43.04580000     -31.04370000     -73.93880000
H      -43.77920000     -32.23800000     -75.57920000
H      -44.41990000     -33.74080000     -71.57920000
H      -42.56620000     -29.81320000     -72.18270000
H      -42.62930000     -30.28380000     -74.65140000
C      -43.36440000     -31.49590000     -70.19020000
H      -42.46480000     -31.01490000     -69.99330000
H      -43.45920000     -32.30180000     -69.44250000
C      -44.81190000     -34.36670000     -74.05430000
H      -44.40080000     -34.95510000     -74.92690000
H      -44.85540000     -34.97360000     -73.13290000
S      -44.66260000     -30.29310000     -69.60160000
S      -46.50250000     -34.02090000     -74.70170000
C      -46.21660000     -30.89160000     -70.41000000
H      -46.94900000     -30.03000000     -70.59460000
H      -45.98340000     -31.27800000     -71.41120000
C      -47.33440000     -33.15840000     -73.26550000
H      -48.23730000     -32.65280000     -73.62210000
H      -46.66900000     -32.48200000     -72.75860000
C      -48.02950000     -34.09720000     -72.19540000
H      -48.59470000     -33.43280000     -71.57910000
H      -48.81070000     -34.70350000     -72.70590000
C      -47.02450000     -31.92970000     -69.50640000
H      -47.94670000     -32.17180000     -70.03940000
H      -47.19730000     -31.59430000     -68.54270000
C      -46.24950000     -33.24510000     -69.30960000
C      -45.31860000     -33.32160000     -68.27150000
C      -46.26810000     -34.37220000     -70.18860000
H      -44.97060000     -32.39160000     -67.69150000
C      -45.24450000     -35.29850000     -69.80440000
C      -47.16110000     -34.93860000     -71.23640000
C      -46.97380000     -36.27020000     -71.45190000
S      -44.41340000     -34.84310000     -68.33390000
S      -45.63990000     -36.89560000     -70.43730000
H      -47.34010000     -36.97630000     -72.22600000
