40
Properties=species:S:1:pos:R:3 #=T CELL(abcABC):=T 1.889726e+02=T 90.00000=T Traj:=T positionsangstrom=T Step:=T 0=T Bead:=T pbc="F F F"
C      -43.79650000     -31.86000000     -74.37590000
C      -44.02250000     -32.86990000     -73.44720000
C      -43.83600000     -32.53290000     -72.07520000
C      -43.36860000     -31.24990000     -71.72580000
C      -43.19070000     -30.24720000     -72.64000000
C      -43.34250000     -30.59630000     -73.97940000
H      -43.96250000     -32.03700000     -75.42310000
H      -43.94690000     -33.29370000     -71.32560000
H      -42.93910000     -29.29340000     -72.22330000
H      -43.13540000     -29.94100000     -74.80350000
C      -43.25470000     -31.04450000     -70.28860000
H      -42.48080000     -30.23280000     -70.08250000
H      -43.05030000     -32.00850000     -69.79560000
C      -44.47920000     -34.29680000     -73.91350000
H      -43.88040000     -34.68610000     -74.73900000
H      -44.36720000     -35.00980000     -73.11540000
S      -44.78550000     -30.28680000     -69.53650000
S      -46.22370000     -34.30690000     -74.58570000
C      -46.26730000     -31.05330000     -70.37230000
H      -47.00890000     -30.24450000     -70.54740000
H      -45.89300000     -31.49860000     -71.28670000
C      -47.03860000     -33.18670000     -73.35850000
H      -47.82830000     -32.56930000     -73.85850000
H      -46.31400000     -32.54230000     -72.85480000
C      -47.85800000     -33.94470000     -72.26170000
H      -48.45710000     -33.25490000     -71.65880000
H      -48.66400000     -34.55280000     -72.80210000
C      -46.90770000     -32.08250000     -69.47360000
H      -47.88920000     -32.32400000     -69.95210000
H      -47.10970000     -31.64340000     -68.51280000
C      -46.09850000     -33.36680000     -69.35200000
C      -45.35780000     -33.67350000     -68.23180000
C      -46.16260000     -34.49950000     -70.26630000
H      -45.27160000     -33.00100000     -67.40780000
C      -45.51590000     -35.60440000     -69.71530000
C      -46.92130000     -34.79090000     -71.50710000
C      -46.88850000     -36.11190000     -71.75530000
S      -44.77360000     -35.30300000     -68.14380000
S      -45.77070000     -37.08270000     -70.62380000
H      -47.55290000     -36.53620000     -72.51440000
