40
Properties=species:S:1:pos:R:3 #=T CELL(abcABC):=T 1.889726e+02=T 90.00000=T Traj:=T positionsangstrom=T Step:=T 0=T Bead:=T pbc="F F F"
C      -43.66310000     -31.88320000     -74.50110000
C      -43.92060000     -32.97110000     -73.67140000
C      -43.73160000     -32.75080000     -72.28120000
C      -43.51570000     -31.41420000     -71.78220000
C      -43.24450000     -30.35700000     -72.62930000
C      -43.35240000     -30.55010000     -74.02210000
H      -43.83440000     -31.95580000     -75.52770000
H      -43.78970000     -33.46180000     -71.45910000
H      -43.04890000     -29.36200000     -72.18090000
H      -43.09420000     -29.91350000     -74.84710000
C      -43.42180000     -31.21170000     -70.28510000
H      -42.44650000     -30.72700000     -70.08720000
H      -43.33080000     -32.10490000     -69.72300000
C      -44.27190000     -34.32720000     -74.11000000
H      -43.92480000     -34.84290000     -75.07360000
H      -44.17100000     -35.04610000     -73.28860000
S      -44.81580000     -30.21120000     -69.53470000
S      -46.12490000     -34.29560000     -74.47310000
C      -46.26560000     -30.99890000     -70.23980000
H      -47.00340000     -30.18060000     -70.37460000
H      -46.07350000     -31.34600000     -71.22590000
C      -47.03430000     -33.05510000     -73.33960000
H      -47.56120000     -32.40230000     -74.01880000
H      -46.26490000     -32.46710000     -72.91180000
C      -47.88680000     -33.78240000     -72.17840000
H      -48.22700000     -32.98870000     -71.51280000
H      -48.80170000     -34.23650000     -72.58130000
C      -46.92340000     -32.00640000     -69.32220000
H      -48.02870000     -32.07250000     -69.70140000
H      -46.95960000     -31.50010000     -68.36020000
C      -46.24270000     -33.40420000     -69.21220000
C      -45.37560000     -33.65280000     -68.19760000
C      -46.34380000     -34.52920000     -70.12310000
H      -45.15930000     -32.96200000     -67.40830000
C      -45.60310000     -35.62810000     -69.63830000
C      -47.04460000     -34.76960000     -71.38570000
C      -46.84360000     -36.08560000     -71.72510000
S      -44.66320000     -35.28780000     -68.22340000
S      -45.83730000     -37.06500000     -70.69330000
H      -47.10350000     -36.54640000     -72.64830000
