40
Properties=species:S:1:pos:R:3 #=T CELL(abcABC):=T 1.889726e+02=T 90.00000=T Traj:=T positionsangstrom=T Step:=T 0=T Bead:=T pbc="F F F"
C      -43.61720000     -31.73620000     -74.54200000
C      -43.90470000     -32.91900000     -73.76190000
C      -43.80400000     -32.72080000     -72.38480000
C      -43.59660000     -31.49220000     -71.78460000
C      -43.34030000     -30.35780000     -72.51700000
C      -43.34090000     -30.54510000     -73.88510000
H      -43.38880000     -31.82690000     -75.59640000
H      -44.01170000     -33.61360000     -71.70680000
H      -43.06860000     -29.40730000     -71.97450000
H      -43.09540000     -29.68830000     -74.56190000
C      -43.44530000     -31.36200000     -70.29870000
H      -42.49670000     -30.92220000     -70.07100000
H      -43.55360000     -32.32300000     -69.78980000
C      -44.37580000     -34.25960000     -74.26750000
H      -43.89800000     -34.38580000     -75.20700000
H      -44.01870000     -35.00040000     -73.57010000
S      -44.69530000     -30.23490000     -69.55540000
S      -46.24290000     -34.35430000     -74.52320000
C      -46.31530000     -30.99410000     -70.15470000
H      -47.01340000     -30.16250000     -70.27030000
H      -46.10540000     -31.41190000     -71.19020000
C      -46.89440000     -33.17000000     -73.25370000
H      -47.43070000     -32.33000000     -73.76970000
H      -46.06690000     -32.62980000     -72.74970000
C      -47.92720000     -33.71840000     -72.20070000
H      -48.34660000     -32.96120000     -71.57480000
H      -48.72790000     -34.26740000     -72.66420000
C      -46.94370000     -32.04280000     -69.16940000
H      -47.95420000     -32.19840000     -69.40060000
H      -46.96710000     -31.59930000     -68.15330000
C      -46.20430000     -33.43340000     -69.09870000
C      -45.18950000     -33.68750000     -68.17200000
C      -46.40630000     -34.46130000     -70.06220000
H      -44.91290000     -33.06100000     -67.32640000
C      -45.63340000     -35.56340000     -69.68130000
C      -47.12750000     -34.70480000     -71.33300000
C      -46.86200000     -35.97930000     -71.78850000
S      -44.62140000     -35.38480000     -68.27270000
S      -45.80700000     -36.96530000     -70.70260000
H      -47.23880000     -36.52920000     -72.67760000
