40
Properties=species:S:1:pos:R:3 #=T CELL(abcABC):=T 1.889726e+02=T 90.00000=T Traj:=T positionsangstrom=T Step:=T 0=T Bead:=T pbc="F F F"
C      -43.80040000     -31.74890000     -74.48580000
C      -44.01710000     -32.95440000     -73.73130000
C      -43.94420000     -32.79060000     -72.31930000
C      -43.44500000     -31.63800000     -71.72620000
C      -43.14610000     -30.50860000     -72.51590000
C      -43.34320000     -30.53540000     -73.92100000
H      -44.14750000     -31.73470000     -75.58110000
H      -44.21240000     -33.69350000     -71.73940000
H      -42.91370000     -29.56370000     -72.01830000
H      -43.35110000     -29.57130000     -74.42430000
C      -43.40850000     -31.52000000     -70.18130000
H      -42.46470000     -31.13720000     -69.79980000
H      -43.69470000     -32.53370000     -69.76290000
C      -44.50550000     -34.13950000     -74.46480000
H      -44.10410000     -33.98450000     -75.43340000
H      -44.13690000     -35.16100000     -74.04360000
S      -44.62460000     -30.26450000     -69.51350000
S      -46.34660000     -34.25730000     -74.49410000
C      -46.28590000     -30.97200000     -70.09540000
H      -46.92650000     -30.13860000     -70.19650000
H      -46.14040000     -31.51400000     -71.08150000
C      -47.13150000     -32.98900000     -73.36460000
H      -47.91960000     -32.55560000     -73.96700000
H      -46.37790000     -32.26580000     -73.00890000
C      -47.79280000     -33.66120000     -72.09660000
H      -47.89690000     -32.71590000     -71.46480000
H      -48.77960000     -34.03890000     -72.37860000
C      -46.95660000     -32.06970000     -69.21800000
H      -47.99630000     -32.18690000     -69.63890000
H      -47.00440000     -31.69860000     -68.12360000
C      -46.13560000     -33.36840000     -69.17410000
C      -45.38540000     -33.72170000     -68.07580000
C      -46.15090000     -34.43180000     -70.18920000
H      -45.11780000     -33.05120000     -67.24310000
C      -45.40550000     -35.57530000     -69.78840000
C      -46.93380000     -34.67940000     -71.38270000
C      -46.82910000     -36.00330000     -71.79810000
S      -44.69000000     -35.36180000     -68.18080000
S      -45.74700000     -37.00810000     -70.79240000
H      -47.49590000     -36.39050000     -72.60950000
