40
Properties=species:S:1:pos:R:3 #=T CELL(abcABC):=T 1.889726e+02=T 90.00000=T Traj:=T positionsangstrom=T Step:=T 0=T Bead:=T pbc="F F F"
C      -43.77530000     -31.77900000     -74.49160000
C      -44.09940000     -32.86860000     -73.71660000
C      -43.87460000     -32.82510000     -72.35650000
C      -43.31560000     -31.68380000     -71.76840000
C      -43.11480000     -30.53530000     -72.50620000
C      -43.29970000     -30.57510000     -73.92190000
H      -43.86010000     -31.95000000     -75.61190000
H      -44.08970000     -33.66250000     -71.76090000
H      -42.74320000     -29.67990000     -72.04940000
H      -42.82780000     -29.79550000     -74.55240000
C      -43.34770000     -31.69340000     -70.22880000
H      -42.40230000     -31.47410000     -69.74980000
H      -43.56800000     -32.68700000     -69.94750000
C      -44.68990000     -34.09540000     -74.35840000
H      -44.24920000     -34.35130000     -75.35350000
H      -44.57720000     -34.96560000     -73.79370000
S      -44.52790000     -30.41970000     -69.52790000
S      -46.63840000     -34.18270000     -74.64700000
C      -46.14430000     -30.96310000     -70.07590000
H      -46.78470000     -30.10570000     -70.39880000
H      -46.07300000     -31.39170000     -71.04740000
C      -47.17840000     -33.04750000     -73.31890000
H      -47.90260000     -32.31230000     -73.75260000
H      -46.37110000     -32.46510000     -72.88940000
C      -47.85420000     -33.76000000     -72.18970000
H      -48.20430000     -33.02780000     -71.48780000
H      -48.75290000     -34.24170000     -72.46320000
C      -46.81830000     -31.88040000     -69.12980000
H      -47.86210000     -32.00990000     -69.40990000
H      -46.79920000     -31.52890000     -68.13510000
C      -46.13210000     -33.26950000     -69.15780000
C      -45.46940000     -33.73410000     -68.04810000
C      -46.30950000     -34.42220000     -70.07990000
H      -45.20210000     -33.08810000     -67.18480000
C      -45.61660000     -35.56980000     -69.66490000
C      -46.91140000     -34.67410000     -71.35390000
C      -46.61780000     -35.95950000     -71.85090000
S      -44.73820000     -35.33440000     -68.13480000
S      -45.56660000     -36.91020000     -70.79020000
H      -46.98700000     -36.28090000     -72.83840000
