40
Properties=species:S:1:pos:R:3 #=T CELL(abcABC):=T 1.889726e+02=T 90.00000=T Traj:=T positionsangstrom=T Step:=T 0=T Bead:=T pbc="F F F"
C      -43.93040000     -31.93620000     -74.57900000
C      -44.24720000     -32.93410000     -73.70260000
C      -43.95230000     -32.92030000     -72.34100000
C      -43.43170000     -31.77660000     -71.77250000
C      -43.07840000     -30.74460000     -72.67640000
C      -43.38150000     -30.69970000     -74.02690000
H      -44.18680000     -31.92990000     -75.60490000
H      -44.20340000     -33.77950000     -71.72240000
H      -42.69880000     -29.88890000     -72.19170000
H      -43.26000000     -29.75760000     -74.64740000
C      -43.13050000     -31.61510000     -70.37800000
H      -42.22300000     -30.93070000     -70.30710000
H      -43.02000000     -32.54910000     -69.81490000
C      -44.83650000     -34.21010000     -74.28080000
H      -44.32230000     -34.44670000     -75.26420000
H      -44.80360000     -35.02320000     -73.57910000
S      -44.38280000     -30.49290000     -69.45310000
S      -46.61420000     -33.80700000     -74.69380000
C      -46.02750000     -31.02680000     -70.21790000
H      -46.57020000     -30.07510000     -70.44890000
H      -45.62680000     -31.65450000     -71.01620000
C      -47.36220000     -32.99600000     -73.18880000
H      -48.19880000     -32.47520000     -73.63900000
H      -46.65920000     -32.19890000     -72.90750000
C      -47.96870000     -33.88610000     -72.03160000
H      -48.57980000     -33.28280000     -71.33840000
H      -48.71070000     -34.53010000     -72.64670000
C      -46.89280000     -31.96470000     -69.34420000
H      -47.83780000     -32.19340000     -69.87940000
H      -47.23450000     -31.45310000     -68.46490000
C      -46.24770000     -33.28780000     -69.10260000
C      -45.49940000     -33.61190000     -68.00250000
C      -46.30140000     -34.47440000     -70.06700000
H      -45.36310000     -33.01320000     -67.10180000
C      -45.57010000     -35.57180000     -69.61710000
C      -46.93410000     -34.77560000     -71.33400000
C      -46.50450000     -36.01100000     -71.85970000
S      -44.82100000     -35.26380000     -68.03530000
S      -45.34710000     -36.85340000     -70.77350000
H      -46.81220000     -36.32110000     -72.81490000
