40
Properties=species:S:1:pos:R:3 #=T CELL(abcABC):=T 1.889726e+02=T 90.00000=T Traj:=T positionsangstrom=T Step:=T 0=T Bead:=T pbc="F F F"
C      -45.89230000     -29.59610000     -70.14070000
C      -46.87410000     -30.64570000     -70.04840000
C      -47.44810000     -31.03670000     -71.28530000
C      -47.15240000     -30.43820000     -72.49430000
C      -46.25260000     -29.37680000     -72.50120000
C      -45.57230000     -28.99200000     -71.35470000
H      -45.41490000     -29.18680000     -69.24910000
H      -48.26090000     -31.80580000     -71.15790000
H      -46.10770000     -28.92850000     -73.46810000
H      -44.98160000     -28.11660000     -71.30910000
C      -47.82990000     -31.01340000     -73.73960000
H      -47.49000000     -30.45360000     -74.68430000
H      -48.95540000     -30.98090000     -73.72010000
C      -47.28700000     -31.12110000     -68.64300000
H      -46.56400000     -30.77950000     -67.91060000
H      -48.26310000     -30.59530000     -68.37140000
S      -47.60220000     -32.82080000     -73.85400000
S      -47.75440000     -32.97740000     -68.46070000
C      -45.81350000     -33.21870000     -73.42820000
H      -45.15230000     -32.60600000     -74.10040000
H      -45.67960000     -32.79970000     -72.47310000
C      -46.04360000     -33.66130000     -68.80460000
H      -45.83800000     -34.24580000     -67.90110000
H      -45.25350000     -32.83970000     -68.73250000
C      -45.87870000     -34.45540000     -70.06520000
H      -46.54200000     -35.41640000     -70.03500000
H      -46.10760000     -33.90790000     -70.92560000
C      -45.54390000     -34.74860000     -73.45860000
H      -45.56560000     -35.14890000     -74.48080000
H      -46.32970000     -35.21840000     -72.84840000
C      -44.18950000     -35.13200000     -72.85790000
C      -43.18200000     -35.60820000     -73.66810000
C      -43.80230000     -35.19250000     -71.43960000
H      -43.17520000     -35.63740000     -74.76140000
C      -42.52160000     -35.79400000     -71.25930000
C      -44.47350000     -34.98860000     -70.19210000
C      -43.74850000     -35.48100000     -69.13520000
S      -41.79620000     -36.25270000     -72.81400000
S      -42.14370000     -35.89740000     -69.61650000
H      -43.92120000     -35.10120000     -68.07390000
