40
Properties=species:S:1:pos:R:3 #=T CELL(abcABC):=T 1.889726e+02=T 90.00000=T Traj:=T positionsangstrom=T Step:=T 0=T Bead:=T pbc="F F F"
C      -45.31480000     -30.74020000     -71.97470000
C      -45.77640000     -31.23380000     -73.15830000
C      -45.02260000     -32.20330000     -73.86880000
C      -43.75950000     -32.55040000     -73.36990000
C      -43.22650000     -31.96290000     -72.22150000
C      -44.01330000     -31.07260000     -71.51000000
H      -45.92270000     -30.09660000     -71.34960000
H      -45.43240000     -32.64940000     -74.77500000
H      -42.24370000     -32.23250000     -71.89310000
H      -43.69820000     -30.54670000     -70.57980000
C      -42.91550000     -33.70830000     -74.06390000
H      -42.02730000     -33.26470000     -74.48210000
H      -43.49660000     -34.17380000     -74.83860000
C      -47.19260000     -30.78060000     -73.62880000
H      -47.59210000     -29.98230000     -72.94070000
H      -47.10070000     -30.36880000     -74.68620000
S      -42.20310000     -34.95800000     -72.89650000
S      -48.38440000     -32.18110000     -73.71580000
C      -43.66770000     -36.09530000     -72.62070000
H      -43.98010000     -36.55900000     -73.58200000
H      -43.33720000     -36.97770000     -72.05010000
C      -48.54170000     -32.71310000     -71.93720000
H      -49.62920000     -32.96920000     -71.70220000
H      -48.24820000     -31.79060000     -71.42970000
C      -47.58430000     -33.83590000     -71.60290000
H      -48.12740000     -34.83530000     -71.86320000
H      -46.68710000     -33.75110000     -72.22810000
C      -44.80940000     -35.38810000     -71.91430000
H      -45.73620000     -36.02010000     -71.99740000
H      -45.08800000     -34.47610000     -72.50680000
C      -44.71990000     -35.03860000     -70.46970000
C      -43.60130000     -35.28630000     -69.65210000
C      -45.76220000     -34.36390000     -69.75640000
H      -42.67350000     -35.68060000     -70.08660000
C      -45.38930000     -34.05850000     -68.47170000
C      -47.05140000     -33.68500000     -70.13860000
C      -47.57810000     -32.97740000     -69.10070000
S      -43.77820000     -34.55570000     -68.06300000
S      -46.58890000     -33.08800000     -67.65360000
H      -48.48640000     -32.37510000     -69.16410000
