40
Properties=species:S:1:pos:R:3 #=T CELL(abcABC):=T 1.889726e+02=T 90.00000=T Traj:=T positionsangstrom=T Step:=T 0=T Bead:=T pbc="F F F"
C      -43.85090000     -31.76750000     -74.49970000
C      -44.31590000     -32.82360000     -73.67080000
C      -44.04140000     -32.78200000     -72.27960000
C      -43.43350000     -31.59900000     -71.72000000
C      -42.96900000     -30.61440000     -72.63900000
C      -43.25230000     -30.64610000     -73.99760000
H      -44.14210000     -31.72230000     -75.53790000
H      -44.24370000     -33.63270000     -71.57040000
H      -42.39800000     -29.68690000     -72.35000000
H      -42.76360000     -29.88700000     -74.64900000
C      -43.25410000     -31.63440000     -70.21240000
H      -42.40660000     -31.04540000     -69.90160000
H      -43.29940000     -32.68800000     -69.90390000
C      -45.07080000     -33.98480000     -74.30050000
H      -44.75590000     -34.37230000     -75.22830000
H      -44.86240000     -34.78020000     -73.63570000
S      -44.52090000     -30.62900000     -69.31330000
S      -46.98870000     -33.59830000     -74.49450000
C      -46.21860000     -31.11130000     -69.88700000
H      -46.81970000     -30.23870000     -69.69330000
H      -46.20980000     -31.36650000     -70.94010000
C      -47.42950000     -32.84250000     -72.95810000
H      -48.13970000     -32.06530000     -73.26420000
H      -46.58900000     -32.36980000     -72.58670000
C      -47.98480000     -33.73350000     -71.83740000
H      -48.39540000     -33.11550000     -70.97230000
H      -48.94200000     -34.26470000     -72.18070000
C      -46.80120000     -32.28650000     -69.03140000
H      -47.85590000     -32.34530000     -69.31460000
H      -46.78840000     -31.89080000     -68.01760000
C      -46.02010000     -33.55640000     -69.09170000
C      -45.08770000     -33.91940000     -68.12450000
C      -46.16480000     -34.53930000     -70.13570000
H      -44.92930000     -33.38470000     -67.16130000
C      -45.33950000     -35.67950000     -69.87520000
C      -46.94580000     -34.67770000     -71.34410000
C      -46.64330000     -35.85070000     -72.00960000
S      -44.32070000     -35.46880000     -68.42970000
S      -45.49990000     -36.88240000     -71.17130000
H      -47.16400000     -36.21110000     -72.88570000
