40
Properties=species:S:1:pos:R:3 #=T CELL(abcABC):=T 1.889726e+02=T 90.00000=T Traj:=T positionsangstrom=T Step:=T 0=T Bead:=T pbc="F F F"
C      -45.56000000     -30.56110000     -72.13060000
C      -45.93890000     -31.42350000     -73.17670000
C      -45.11340000     -32.42430000     -73.63010000
C      -43.87340000     -32.66520000     -72.98020000
C      -43.47520000     -31.80610000     -72.02720000
C      -44.33910000     -30.84380000     -71.54130000
H      -46.32120000     -29.95400000     -71.72610000
H      -45.43040000     -32.94150000     -74.57420000
H      -42.49660000     -31.93690000     -71.58480000
H      -43.96200000     -30.17560000     -70.69010000
C      -43.00530000     -33.74670000     -73.64310000
H      -42.06980000     -33.34100000     -73.99420000
H      -43.53650000     -34.14400000     -74.51740000
C      -47.23550000     -31.08860000     -73.84960000
H      -47.59950000     -30.14380000     -73.47190000
H      -47.12060000     -30.83700000     -74.93070000
S      -42.24660000     -35.12570000     -72.61190000
S      -48.34860000     -32.59340000     -73.73300000
C      -43.69040000     -36.28960000     -72.54140000
H      -44.05430000     -36.68930000     -73.46280000
H      -43.31580000     -37.09310000     -72.00970000
C      -48.67970000     -32.79540000     -71.94990000
H      -49.70740000     -32.94910000     -71.77090000
H      -48.39960000     -31.86740000     -71.41550000
C      -47.85670000     -33.92530000     -71.37930000
H      -48.44370000     -34.82160000     -71.17630000
H      -47.02700000     -34.13480000     -72.14950000
C      -44.88420000     -35.61860000     -71.91270000
H      -45.80040000     -36.26010000     -71.89360000
H      -45.11500000     -34.67920000     -72.51820000
C      -44.73590000     -35.11620000     -70.49800000
C      -43.65780000     -35.43260000     -69.70130000
C      -45.69880000     -34.17060000     -69.94070000
H      -42.89830000     -36.15820000     -69.91600000
C      -45.13220000     -33.67130000     -68.70030000
C      -46.94000000     -33.53670000     -70.25110000
C      -47.38220000     -32.73470000     -69.19640000
S      -43.55610000     -34.34220000     -68.26220000
S      -46.25980000     -32.61070000     -67.91480000
H      -48.33740000     -32.29190000     -69.09930000
