40
Properties=species:S:1:pos:R:3 #=T CELL(abcABC):=T 1.889726e+02=T 90.00000=T Traj:=T positionsangstrom=T Step:=T 0=T Bead:=T pbc="F F F"
C      -45.47480000     -30.63420000     -72.07490000
C      -45.91520000     -31.40170000     -73.18950000
C      -45.05770000     -32.40990000     -73.73560000
C      -43.83600000     -32.71590000     -73.08460000
C      -43.48680000     -32.00130000     -71.98950000
C      -44.20190000     -30.86310000     -71.52560000
H      -46.06390000     -29.78620000     -71.76960000
H      -45.43270000     -33.00780000     -74.62550000
H      -42.57920000     -32.31880000     -71.53210000
H      -43.79560000     -30.15570000     -70.76120000
C      -42.88770000     -33.63370000     -73.71190000
H      -41.87300000     -33.25910000     -73.94680000
H      -43.36580000     -33.98930000     -74.64210000
C      -47.26520000     -31.22160000     -73.86920000
H      -47.73460000     -30.30020000     -73.46400000
H      -47.04690000     -31.17940000     -74.91040000
S      -42.37050000     -35.01780000     -72.60180000
S      -48.49750000     -32.53010000     -73.82880000
C      -43.75560000     -36.24130000     -72.54850000
H      -44.13940000     -36.46900000     -73.56600000
H      -43.22210000     -37.14590000     -72.15580000
C      -48.59600000     -32.86650000     -71.98750000
H      -49.64950000     -33.06750000     -71.97010000
H      -48.42800000     -31.82140000     -71.59050000
C      -47.79380000     -34.00390000     -71.37520000
H      -48.48470000     -34.80810000     -71.27750000
H      -47.04950000     -34.34500000     -72.12170000
C      -44.99330000     -35.79000000     -71.77130000
H      -45.70800000     -36.54930000     -71.82050000
H      -45.46520000     -35.09150000     -72.50270000
C      -44.79950000     -35.12190000     -70.45260000
C      -43.65010000     -35.27910000     -69.74670000
C      -45.70390000     -34.18690000     -69.76700000
H      -42.85210000     -35.94170000     -69.98640000
C      -45.10430000     -33.63300000     -68.63250000
C      -46.97600000     -33.59980000     -70.10330000
C      -47.34980000     -32.59470000     -69.26290000
S      -43.64170000     -34.49960000     -68.18950000
S      -46.04860000     -32.46700000     -67.95620000
H      -48.24860000     -32.04180000     -69.16960000
