40
Properties=species:S:1:pos:R:3 #=T CELL(abcABC):=T 1.889726e+02=T 90.00000=T Traj:=T positionsangstrom=T Step:=T 0=T Bead:=T pbc="F F F"
C      -44.43590000     -31.51550000     -74.37480000
C      -44.38910000     -32.66630000     -73.59180000
C      -43.92600000     -32.56180000     -72.25200000
C      -43.41400000     -31.40940000     -71.71150000
C      -43.49830000     -30.21800000     -72.47740000
C      -43.97590000     -30.27740000     -73.82670000
H      -44.84750000     -31.45190000     -75.33030000
H      -43.91620000     -33.44070000     -71.68260000
H      -43.35710000     -29.24290000     -72.03400000
H      -43.98660000     -29.36550000     -74.34930000
C      -42.94340000     -31.40350000     -70.25030000
H      -42.09300000     -30.74360000     -70.08120000
H      -42.74580000     -32.46880000     -69.89740000
C      -44.92810000     -34.02090000     -74.03320000
H      -44.44580000     -34.29540000     -74.95610000
H      -44.81100000     -34.83080000     -73.34020000
S      -44.30150000     -30.73760000     -69.10870000
S      -46.76370000     -33.90540000     -74.44980000
C      -45.83610000     -31.17000000     -69.92600000
H      -46.40910000     -30.23700000     -69.98500000
H      -45.63280000     -31.44930000     -70.88390000
C      -47.45610000     -33.08500000     -72.93910000
H      -48.09930000     -32.34690000     -73.33560000
H      -46.64990000     -32.45920000     -72.54860000
C      -48.19570000     -33.95860000     -71.83210000
H      -48.65590000     -33.40240000     -70.99650000
H      -48.93120000     -34.63020000     -72.26510000
C      -46.71440000     -32.20970000     -69.25710000
H      -47.67570000     -32.19880000     -69.73520000
H      -46.91430000     -31.92960000     -68.22410000
C      -46.02670000     -33.55740000     -69.24010000
C      -44.97260000     -33.78300000     -68.41170000
C      -46.21100000     -34.64240000     -70.18890000
H      -44.50240000     -33.14630000     -67.66130000
C      -45.29010000     -35.65180000     -70.05410000
C      -47.14060000     -34.87270000     -71.29630000
C      -46.89230000     -36.07830000     -71.85160000
S      -44.15750000     -35.33850000     -68.75210000
S      -45.55740000     -36.99020000     -71.13100000
H      -47.57540000     -36.43940000     -72.63370000
