40
Properties=species:S:1:pos:R:3 #=T CELL(abcABC):=T 1.889726e+02=T 90.00000=T Traj:=T positionsangstrom=T Step:=T 0=T Bead:=T pbc="F F F"
C      -44.56470000     -31.60480000     -74.36300000
C      -44.62890000     -32.73080000     -73.52460000
C      -44.08170000     -32.62440000     -72.23160000
C      -43.61690000     -31.35950000     -71.71770000
C      -43.63940000     -30.27620000     -72.59890000
C      -44.06450000     -30.41310000     -73.88860000
H      -45.04110000     -31.71770000     -75.37490000
H      -43.98270000     -33.57200000     -71.67520000
H      -43.23180000     -29.33630000     -72.24120000
H      -44.23550000     -29.60800000     -74.57140000
C      -43.11700000     -31.31160000     -70.27450000
H      -42.23880000     -30.69290000     -70.20190000
H      -42.96070000     -32.33060000     -69.94570000
C      -45.20230000     -33.99320000     -74.07910000
H      -44.61060000     -34.27500000     -74.96210000
H      -45.05100000     -34.80300000     -73.33470000
S      -44.35430000     -30.50490000     -69.18780000
S      -46.97920000     -33.81540000     -74.41030000
C      -46.03110000     -31.01750000     -69.89030000
H      -46.64540000     -30.19860000     -69.79130000
H      -45.81580000     -31.23380000     -70.99230000
C      -47.72760000     -33.01260000     -72.83470000
H      -48.73970000     -32.59730000     -73.10490000
H      -47.07060000     -32.19860000     -72.59910000
C      -48.01730000     -34.11360000     -71.88390000
H      -48.48990000     -33.71840000     -70.98950000
H      -48.75280000     -34.81890000     -72.26160000
C      -46.61580000     -32.28570000     -69.18210000
H      -47.61320000     -32.42780000     -69.58680000
H      -46.64270000     -32.06030000     -68.15100000
C      -45.87190000     -33.57820000     -69.23950000
C      -44.93360000     -33.95840000     -68.30760000
C      -46.04760000     -34.62260000     -70.24880000
H      -44.62100000     -33.35270000     -67.47340000
C      -45.08900000     -35.68450000     -70.00920000
C      -46.92960000     -34.96820000     -71.31510000
C      -46.59750000     -36.16080000     -71.92120000
S      -44.05140000     -35.42300000     -68.65470000
S      -45.14680000     -36.94690000     -71.18680000
H      -47.09300000     -36.53590000     -72.79830000
