40
Properties=species:S:1:pos:R:3 #=T CELL(abcABC):=T 1.889726e+02=T 90.00000=T Traj:=T positionsangstrom=T Step:=T 0=T Bead:=T pbc="F F F"
C      -44.54840000     -31.46530000     -74.42160000
C      -44.74660000     -32.62950000     -73.66760000
C      -44.22450000     -32.65210000     -72.29230000
C      -43.68720000     -31.46080000     -71.76700000
C      -43.59960000     -30.34210000     -72.53870000
C      -43.94520000     -30.34690000     -73.86380000
H      -44.90670000     -31.49070000     -75.42170000
H      -44.45450000     -33.56480000     -71.75340000
H      -43.27840000     -29.37530000     -72.14790000
H      -43.63740000     -29.51410000     -74.52680000
C      -43.35170000     -31.44420000     -70.32170000
H      -42.36570000     -31.04190000     -70.15700000
H      -43.50670000     -32.54540000     -69.94790000
C      -45.25850000     -33.85890000     -74.26460000
H      -44.90740000     -33.97830000     -75.28370000
H      -44.95060000     -34.78720000     -73.80300000
S      -44.48160000     -30.35550000     -69.32000000
S      -47.12560000     -33.88990000     -74.51860000
C      -46.10590000     -31.07820000     -69.76970000
H      -46.87640000     -30.32240000     -69.58420000
H      -46.18010000     -31.23080000     -70.85870000
C      -47.68950000     -33.13500000     -72.91260000
H      -48.57640000     -32.56880000     -73.15660000
H      -47.02420000     -32.34250000     -72.51880000
C      -47.99100000     -34.15340000     -71.75080000
H      -48.45110000     -33.52820000     -71.00980000
H      -48.75370000     -34.75690000     -72.28300000
C      -46.57090000     -32.30670000     -69.00980000
H      -47.62410000     -32.53250000     -69.26950000
H      -46.64250000     -32.00200000     -67.92760000
C      -45.70810000     -33.60080000     -69.18190000
C      -44.67060000     -33.79780000     -68.30270000
C      -45.94010000     -34.72610000     -70.08780000
H      -44.29810000     -33.12090000     -67.54080000
C      -44.94040000     -35.69640000     -69.93340000
C      -46.82590000     -34.97360000     -71.20580000
C      -46.55970000     -36.17010000     -71.84310000
S      -43.89640000     -35.41630000     -68.61410000
S      -45.15990000     -36.98480000     -71.13830000
H      -47.12110000     -36.70840000     -72.52460000
