40
Properties=species:S:1:pos:R:3 #=T CELL(abcABC):=T 1.889726e+02=T 90.00000=T Traj:=T positionsangstrom=T Step:=T 0=T Bead:=T pbc="F F F"
C      -44.55990000     -31.28370000     -74.80640000
C      -44.71220000     -32.42170000     -74.01630000
C      -44.32160000     -32.44910000     -72.69530000
C      -43.86750000     -31.30120000     -72.01030000
C      -43.72440000     -30.13390000     -72.80030000
C      -44.01010000     -30.15980000     -74.15890000
H      -44.74970000     -31.21660000     -75.87110000
H      -44.52460000     -33.38880000     -72.09590000
H      -43.32500000     -29.18150000     -72.50310000
H      -43.98260000     -29.26390000     -74.79840000
C      -43.59040000     -31.46240000     -70.54530000
H      -42.58920000     -30.91040000     -70.40660000
H      -43.42220000     -32.53470000     -70.29000000
C      -45.34760000     -33.63400000     -74.61150000
H      -45.19350000     -33.64330000     -75.68580000
H      -44.81240000     -34.40500000     -74.18310000
S      -44.69040000     -30.59310000     -69.30790000
S      -47.13450000     -33.87580000     -74.22110000
C      -46.32080000     -31.45760000     -69.71200000
H      -47.10690000     -30.73500000     -69.69000000
H      -46.28150000     -31.83240000     -70.72990000
C      -47.54520000     -33.08040000     -72.59080000
H      -48.29110000     -32.31310000     -72.76920000
H      -46.65780000     -32.58470000     -72.30430000
C      -47.89340000     -34.06220000     -71.42360000
H      -48.24850000     -33.42120000     -70.63420000
H      -48.77220000     -34.61290000     -71.78260000
C      -46.63230000     -32.63090000     -68.73070000
H      -47.60540000     -33.04950000     -68.92950000
H      -46.68100000     -32.28230000     -67.68950000
C      -45.63610000     -33.78920000     -68.85730000
C      -44.49150000     -33.98880000     -68.11230000
C      -45.83350000     -34.70990000     -69.93210000
H      -44.09720000     -33.27090000     -67.36330000
C      -44.89540000     -35.69620000     -69.86010000
C      -46.74900000     -34.96380000     -71.02900000
C      -46.55840000     -36.14340000     -71.68160000
S      -43.64620000     -35.41210000     -68.78230000
S      -45.07690000     -36.95280000     -71.09290000
H      -47.01110000     -36.40600000     -72.69750000
