40
Properties=species:S:1:pos:R:3 #=T CELL(abcABC):=T 1.889726e+02=T 90.00000=T Traj:=T positionsangstrom=T Step:=T 0=T Bead:=T pbc="F F F"
C      -44.67310000     -31.32120000     -74.74600000
C      -44.83860000     -32.49180000     -73.93380000
C      -44.32890000     -32.47270000     -72.61330000
C      -43.89320000     -31.29880000     -71.99640000
C      -43.92860000     -30.14340000     -72.77350000
C      -44.30290000     -30.11620000     -74.08280000
H      -44.93930000     -31.16060000     -75.81610000
H      -44.46550000     -33.36080000     -71.99680000
H      -43.73270000     -29.18810000     -72.27440000
H      -44.29860000     -29.22630000     -74.67330000
C      -43.41290000     -31.27320000     -70.57180000
H      -42.51400000     -30.75170000     -70.35730000
H      -43.29320000     -32.29250000     -70.22260000
C      -45.37810000     -33.72850000     -74.55540000
H      -45.30370000     -33.81530000     -75.67360000
H      -44.88830000     -34.68010000     -74.22100000
S      -44.67070000     -30.52340000     -69.49790000
S      -47.19770000     -33.96260000     -74.29570000
C      -46.26900000     -31.33200000     -69.52650000
H      -46.94900000     -30.49800000     -69.28270000
H      -46.62880000     -31.73670000     -70.52680000
C      -47.66690000     -33.18740000     -72.62320000
H      -48.59490000     -32.53300000     -72.75000000
H      -46.89690000     -32.49150000     -72.34080000
C      -47.89930000     -34.11620000     -71.51180000
H      -48.16120000     -33.52880000     -70.61410000
H      -48.71690000     -34.84390000     -71.71430000
C      -46.40690000     -32.58510000     -68.53530000
H      -47.50270000     -32.74950000     -68.49360000
H      -46.11360000     -32.33350000     -67.52410000
C      -45.65530000     -33.76450000     -68.86860000
C      -44.52540000     -34.04660000     -68.10550000
C      -45.81900000     -34.72180000     -69.94920000
H      -44.20000000     -33.40790000     -67.26900000
C      -44.85160000     -35.72800000     -69.87560000
C      -46.67870000     -34.95450000     -71.09830000
C      -46.34870000     -36.10260000     -71.78100000
S      -43.68080000     -35.46490000     -68.63860000
S      -44.90550000     -36.87490000     -71.19360000
H      -46.87790000     -36.51530000     -72.70240000
