40
Properties=species:S:1:pos:R:3 #=T CELL(abcABC):=T 1.889726e+02=T 90.00000=T Traj:=T positionsangstrom=T Step:=T 0=T Bead:=T pbc="F F F"
C      -45.05060000     -31.54630000     -74.53150000
C      -44.93280000     -32.69790000     -73.75150000
C      -44.38400000     -32.52980000     -72.43060000
C      -43.98970000     -31.24440000     -71.93820000
C      -44.22170000     -30.07200000     -72.79420000
C      -44.75880000     -30.26460000     -74.07630000
H      -45.30280000     -31.62750000     -75.58250000
H      -44.33470000     -33.39340000     -71.71330000
H      -43.90260000     -29.06900000     -72.48920000
H      -44.95240000     -29.40130000     -74.69590000
C      -43.38900000     -31.14810000     -70.56130000
H      -42.64560000     -30.34260000     -70.56840000
H      -42.84830000     -31.96850000     -70.15790000
C      -45.44010000     -33.94610000     -74.28180000
H      -45.09150000     -34.07220000     -75.37120000
H      -44.99930000     -34.81470000     -73.71650000
S      -44.62420000     -30.32610000     -69.44610000
S      -47.39530000     -34.07080000     -74.29290000
C      -46.20960000     -31.34380000     -69.75040000
H      -47.08020000     -30.65020000     -69.60510000
H      -46.27160000     -31.53580000     -70.83030000
C      -47.87350000     -33.30590000     -72.73960000
H      -48.91650000     -32.96330000     -72.80300000
H      -47.38330000     -32.32960000     -72.55710000
C      -47.79980000     -34.21940000     -71.46310000
H      -48.00790000     -33.69260000     -70.56410000
H      -48.63610000     -34.93680000     -71.52200000
C      -46.39170000     -32.51040000     -68.73660000
H      -47.44000000     -32.72900000     -68.83610000
H      -46.21490000     -31.98220000     -67.77730000
C      -45.56150000     -33.68250000     -68.99370000
C      -44.51140000     -33.99150000     -68.17470000
C      -45.61070000     -34.68940000     -70.05700000
H      -44.17330000     -33.45000000     -67.27760000
C      -44.62690000     -35.64730000     -69.94050000
C      -46.55110000     -35.02470000     -71.16010000
C      -46.01630000     -36.01790000     -71.95730000
S      -43.63650000     -35.45170000     -68.55330000
S      -44.61370000     -36.78400000     -71.24800000
H      -46.49960000     -36.37390000     -72.82870000
