40
Properties=species:S:1:pos:R:3 #=T CELL(abcABC):=T 1.889726e+02=T 90.00000=T Traj:=T positionsangstrom=T Step:=T 0=T Bead:=T pbc="F F F"
C      -45.35520000     -31.42550000     -74.56370000
C      -45.01980000     -32.54360000     -73.83550000
C      -44.35120000     -32.45920000     -72.55180000
C      -44.03440000     -31.16850000     -72.02580000
C      -44.20440000     -30.07860000     -72.89530000
C      -44.80700000     -30.19390000     -74.12270000
H      -46.02750000     -31.51980000     -75.44690000
H      -44.01280000     -33.31600000     -71.88100000
H      -43.89380000     -29.11570000     -72.51480000
H      -44.91170000     -29.24220000     -74.63090000
C      -43.48460000     -31.11160000     -70.65620000
H      -42.55060000     -30.58060000     -70.57960000
H      -43.44690000     -32.20610000     -70.39870000
C      -45.45900000     -33.93710000     -74.35320000
H      -45.07850000     -34.17320000     -75.36600000
H      -45.09560000     -34.70500000     -73.71180000
S      -44.68310000     -30.39280000     -69.47220000
S      -47.28490000     -34.14000000     -74.29140000
C      -46.24370000     -31.41300000     -69.81150000
H      -47.09310000     -30.77250000     -69.82150000
H      -46.02810000     -31.78800000     -70.79330000
C      -47.73810000     -33.39280000     -72.60480000
H      -48.73030000     -32.90670000     -72.75270000
H      -47.04560000     -32.65210000     -72.35720000
C      -47.88110000     -34.42980000     -71.40920000
H      -48.28420000     -33.70400000     -70.66380000
H      -48.62600000     -35.16980000     -71.71280000
C      -46.49690000     -32.55930000     -68.77900000
H      -47.47220000     -33.01640000     -68.67600000
H      -46.37700000     -32.12800000     -67.75890000
C      -45.51110000     -33.69630000     -68.93040000
C      -44.45230000     -33.93590000     -68.08080000
C      -45.67950000     -34.75380000     -69.94830000
H      -44.13810000     -33.32610000     -67.22730000
C      -44.59100000     -35.57960000     -69.88720000
C      -46.63990000     -35.14330000     -70.95490000
C      -46.17540000     -36.19050000     -71.71230000
S      -43.39220000     -35.24930000     -68.69030000
S      -44.58090000     -36.75230000     -71.16840000
H      -46.74530000     -36.57960000     -72.57240000
