40
Properties=species:S:1:pos:R:3 #=T CELL(abcABC):=T 1.889726e+02=T 90.00000=T Traj:=T positionsangstrom=T Step:=T 0=T Bead:=T pbc="F F F"
C      -45.36650000     -31.28510000     -74.61410000
C      -45.10360000     -32.49170000     -73.90290000
C      -44.43260000     -32.47860000     -72.67160000
C      -44.10980000     -31.24990000     -72.08800000
C      -44.42060000     -30.05170000     -72.70140000
C      -44.92580000     -30.08360000     -74.04420000
H      -45.90780000     -31.38550000     -75.56690000
H      -44.22140000     -33.41690000     -72.09840000
H      -44.08180000     -29.15230000     -72.16610000
H      -44.94630000     -29.11020000     -74.52430000
C      -43.53920000     -31.23160000     -70.76270000
H      -42.71510000     -30.51760000     -70.72220000
H      -43.09830000     -32.17620000     -70.37790000
C      -45.47430000     -33.89640000     -74.49520000
H      -45.45390000     -33.83040000     -75.54000000
H      -44.85810000     -34.76470000     -74.19090000
S      -44.73190000     -30.55860000     -69.52240000
S      -47.22640000     -34.38550000     -74.07600000
C      -46.39050000     -31.40320000     -69.62360000
H      -47.09480000     -30.53800000     -69.48370000
H      -46.51590000     -31.72700000     -70.68100000
C      -47.72290000     -33.51990000     -72.55350000
H      -48.66160000     -33.01920000     -72.82390000
H      -46.96370000     -32.79310000     -72.24040000
C      -47.86470000     -34.48180000     -71.42850000
H      -48.20400000     -33.97380000     -70.48230000
H      -48.56190000     -35.26370000     -71.62370000
C      -46.58300000     -32.63390000     -68.75600000
H      -47.58330000     -33.03440000     -68.97030000
H      -46.53950000     -32.35560000     -67.72380000
C      -45.47780000     -33.59020000     -69.07340000
C      -44.32600000     -33.62380000     -68.34480000
C      -45.62750000     -34.66670000     -69.99450000
H      -44.10320000     -32.93910000     -67.57320000
C      -44.43830000     -35.46670000     -69.98220000
C      -46.52620000     -35.10530000     -71.03450000
C      -46.10010000     -36.26910000     -71.66030000
S      -43.28640000     -34.94810000     -68.75040000
S      -44.56440000     -36.82240000     -71.03600000
H      -46.61470000     -36.92800000     -72.37780000
