40
Properties=species:S:1:pos:R:3 #=T CELL(abcABC):=T 1.889726e+02=T 90.00000=T Traj:=T positionsangstrom=T Step:=T 0=T Bead:=T pbc="F F F"
C      -45.38980000     -31.34120000     -74.64010000
C      -45.22930000     -32.56730000     -73.97020000
C      -44.64290000     -32.53010000     -72.72210000
C      -44.33120000     -31.34470000     -72.04030000
C      -44.51020000     -30.06990000     -72.70310000
C      -45.06000000     -30.11550000     -74.04980000
H      -45.58550000     -31.41320000     -75.70200000
H      -44.31040000     -33.40560000     -72.26910000
H      -44.13520000     -29.15370000     -72.15250000
H      -45.18010000     -29.11290000     -74.58240000
C      -43.69340000     -31.32030000     -70.63680000
H      -42.72250000     -30.81560000     -70.74040000
H      -43.41480000     -32.34690000     -70.42450000
C      -45.53460000     -33.82050000     -74.65530000
H      -45.41900000     -33.73810000     -75.76890000
H      -44.82800000     -34.60130000     -74.31580000
S      -44.61140000     -30.33300000     -69.30820000
S      -47.22070000     -34.46030000     -74.18860000
C      -46.24140000     -31.11550000     -69.68410000
H      -46.99970000     -30.44200000     -69.29320000
H      -46.40590000     -31.28520000     -70.74980000
C      -47.73180000     -33.73470000     -72.52230000
H      -48.68190000     -33.27410000     -72.69310000
H      -47.05340000     -32.85310000     -72.29440000
C      -47.86430000     -34.71400000     -71.34490000
H      -48.37890000     -34.27320000     -70.52830000
H      -48.56180000     -35.45280000     -71.68110000
C      -46.50430000     -32.41420000     -68.96660000
H      -47.57000000     -32.64230000     -69.28350000
H      -46.44900000     -32.26250000     -67.88070000
C      -45.55430000     -33.56980000     -69.12310000
C      -44.40020000     -33.54360000     -68.36280000
C      -45.54000000     -34.65790000     -70.10210000
H      -44.12540000     -32.73510000     -67.70510000
C      -44.37240000     -35.47730000     -69.95920000
C      -46.50010000     -35.29430000     -70.99500000
C      -46.06860000     -36.51340000     -71.53390000
S      -43.25250000     -34.81260000     -68.74860000
S      -44.44200000     -36.87840000     -70.99680000
H      -46.47690000     -37.11550000     -72.29680000
