40
Properties=species:S:1:pos:R:3 #=T CELL(abcABC):=T 1.889726e+02=T 90.00000=T Traj:=T positionsangstrom=T Step:=T 0=T Bead:=T pbc="F F F"
C      -45.63840000     -31.62220000     -74.47390000
C      -45.05380000     -32.69850000     -73.80080000
C      -44.41820000     -32.53010000     -72.59500000
C      -44.11000000     -31.20720000     -72.09370000
C      -44.55660000     -30.11640000     -72.87610000
C      -45.37120000     -30.28500000     -74.06740000
H      -46.29660000     -31.79120000     -75.33720000
H      -44.15670000     -33.43610000     -71.96820000
H      -44.37250000     -29.10340000     -72.45570000
H      -45.81150000     -29.41070000     -74.59880000
C      -43.50230000     -31.02250000     -70.72120000
H      -42.74470000     -30.26100000     -70.70770000
H      -43.01600000     -31.87950000     -70.27900000
C      -45.40430000     -34.14050000     -74.22180000
H      -45.29830000     -34.27900000     -75.35180000
H      -44.83270000     -34.97930000     -73.62750000
S      -44.78890000     -30.42820000     -69.46870000
S      -47.24090000     -34.54630000     -74.17670000
C      -46.34290000     -31.15630000     -70.07360000
H      -47.13420000     -30.42760000     -70.14510000
H      -46.16910000     -31.34920000     -71.14580000
C      -47.85970000     -33.80540000     -72.60020000
H      -48.98210000     -33.63080000     -72.75510000
H      -47.33080000     -32.89420000     -72.36410000
C      -47.71270000     -34.72910000     -71.39450000
H      -48.07980000     -34.23610000     -70.52590000
H      -48.33180000     -35.60760000     -71.52930000
C      -46.68330000     -32.46730000     -69.24120000
H      -47.58960000     -32.94980000     -69.67330000
H      -46.89970000     -32.17860000     -68.20260000
C      -45.56990000     -33.42770000     -69.24300000
C      -44.45930000     -33.26960000     -68.48760000
C      -45.47730000     -34.61950000     -70.09200000
H      -44.30150000     -32.62740000     -67.63360000
C      -44.34430000     -35.32400000     -69.85450000
C      -46.40170000     -35.28590000     -71.04800000
C      -45.88120000     -36.48690000     -71.43060000
S      -43.29700000     -34.64100000     -68.70040000
S      -44.29420000     -36.81050000     -70.78290000
H      -46.49950000     -37.13920000     -72.05720000
