40
Properties=species:S:1:pos:R:3 #=T CELL(abcABC):=T 1.889726e+02=T 90.00000=T Traj:=T positionsangstrom=T Step:=T 0=T Bead:=T pbc="F F F"
C      -45.62220000     -31.76910000     -74.45840000
C      -45.05660000     -32.74330000     -73.71190000
C      -44.25830000     -32.46130000     -72.58920000
C      -44.11530000     -31.12550000     -72.18910000
C      -44.65680000     -30.07040000     -72.96450000
C      -45.30750000     -30.45480000     -74.16610000
H      -46.10150000     -32.01410000     -75.39610000
H      -43.70690000     -33.24600000     -72.01580000
H      -44.43550000     -29.07710000     -72.73170000
H      -45.69930000     -29.75770000     -74.85830000
C      -43.52110000     -30.77720000     -70.86070000
H      -42.93620000     -29.85230000     -71.07970000
H      -42.77070000     -31.52150000     -70.50720000
C      -45.33420000     -34.18450000     -74.05050000
H      -44.94690000     -34.47860000     -74.95240000
H      -44.87110000     -34.82290000     -73.33820000
S      -44.86380000     -30.19510000     -69.77470000
S      -47.24050000     -34.38540000     -74.11470000
C      -46.32950000     -31.25520000     -69.99980000
H      -47.15790000     -30.51720000     -69.81010000
H      -46.23800000     -31.64040000     -71.00580000
C      -47.69860000     -33.82690000     -72.43670000
H      -48.63300000     -33.31520000     -72.57850000
H      -47.05170000     -33.04640000     -72.12310000
C      -47.74120000     -34.94250000     -71.40180000
H      -48.26740000     -34.55790000     -70.50310000
H      -48.45990000     -35.72030000     -71.79260000
C      -46.68860000     -32.52290000     -69.09730000
H      -47.56100000     -32.91400000     -69.56330000
H      -46.96030000     -32.21680000     -68.10320000
C      -45.60130000     -33.55330000     -69.15530000
C      -44.60070000     -33.49290000     -68.22210000
C      -45.51210000     -34.66110000     -70.08950000
H      -44.28450000     -32.63410000     -67.58580000
C      -44.31680000     -35.34210000     -69.88780000
C      -46.38760000     -35.34530000     -70.97090000
C      -45.84210000     -36.48450000     -71.51660000
S      -43.37100000     -34.74550000     -68.54960000
S      -44.26890000     -36.78510000     -70.89530000
H      -46.18880000     -37.11410000     -72.38920000
