40
Properties=species:S:1:pos:R:3 #=T CELL(abcABC):=T 1.889726e+02=T 90.00000=T Traj:=T positionsangstrom=T Step:=T 0=T Bead:=T pbc="F F F"
C      -45.13420000     -31.61450000     -74.85180000
C      -45.02590000     -32.72600000     -73.92620000
C      -44.72190000     -32.37760000     -72.61540000
C      -44.53000000     -31.05130000     -72.26210000
C      -44.77270000     -29.99310000     -73.14090000
C      -45.08430000     -30.25520000     -74.47690000
H      -45.27160000     -31.89390000     -75.92330000
H      -44.69330000     -33.24230000     -71.91430000
H      -44.67490000     -28.91040000     -72.89390000
H      -45.27040000     -29.48440000     -75.19570000
C      -44.29770000     -30.72910000     -70.81740000
H      -43.42160000     -30.08530000     -70.75840000
H      -44.16710000     -31.61350000     -70.29290000
C      -45.25480000     -34.16450000     -74.25910000
H      -45.08060000     -34.49050000     -75.32760000
H      -44.49650000     -34.81690000     -73.71430000
S      -45.58840000     -29.96620000     -69.78380000
S      -47.03060000     -34.73880000     -73.94380000
C      -46.76410000     -31.43910000     -69.81480000
H      -47.79570000     -31.02590000     -69.61260000
H      -46.86570000     -31.68580000     -70.87190000
C      -47.52530000     -34.03220000     -72.22440000
H      -48.43770000     -33.50550000     -72.42410000
H      -46.72570000     -33.35250000     -71.89290000
C      -47.72190000     -35.07970000     -71.09920000
H      -48.38040000     -34.71410000     -70.32550000
H      -48.27930000     -35.81160000     -71.61400000
C      -46.51410000     -32.57580000     -68.86320000
H      -47.42650000     -33.13610000     -68.63590000
H      -46.33790000     -32.14790000     -67.82340000
C      -45.36660000     -33.51840000     -69.11520000
C      -44.15510000     -33.19200000     -68.69470000
C      -45.44910000     -34.82160000     -69.73570000
H      -43.81500000     -32.21590000     -68.28970000
C      -44.18710000     -35.37520000     -69.81270000
C      -46.38540000     -35.56380000     -70.58040000
C      -45.80970000     -36.68080000     -71.17540000
S      -42.96770000     -34.42860000     -68.98840000
S      -44.07870000     -36.87960000     -70.75890000
H      -46.33260000     -37.31670000     -71.95390000
