40
Properties=species:S:1:pos:R:3 #=T CELL(abcABC):=T 1.889726e+02=T 90.00000=T Traj:=T positionsangstrom=T Step:=T 0=T Bead:=T pbc="F F F"
C      -45.49960000     -32.09790000     -74.51290000
C      -45.06550000     -32.94050000     -73.46630000
C      -44.50270000     -32.34110000     -72.28580000
C      -44.58640000     -30.95690000     -72.15530000
C      -45.04600000     -30.15460000     -73.18450000
C      -45.46050000     -30.70050000     -74.36590000
H      -45.95420000     -32.53210000     -75.41110000
H      -43.98450000     -32.93040000     -71.56550000
H      -44.94810000     -29.11450000     -73.00220000
H      -45.71470000     -30.09700000     -75.30960000
C      -44.17900000     -30.33850000     -70.78660000
H      -43.74000000     -29.33920000     -70.84250000
H      -43.44410000     -30.95370000     -70.24770000
C      -45.13810000     -34.39610000     -73.68490000
H      -44.45790000     -34.78010000     -74.48160000
H      -44.86040000     -34.92280000     -72.73850000
S      -45.73010000     -30.04380000     -69.73080000
S      -46.82870000     -34.95410000     -74.01670000
C      -46.79320000     -31.53910000     -69.95240000
H      -47.83090000     -31.23900000     -70.05780000
H      -46.56510000     -31.97270000     -70.94900000
C      -47.74720000     -34.14870000     -72.71560000
H      -48.79930000     -34.14870000     -73.03840000
H      -47.38070000     -33.11210000     -72.67270000
C      -47.66080000     -34.77790000     -71.26770000
H      -48.16560000     -34.01620000     -70.61070000
H      -48.43160000     -35.55790000     -71.38910000
C      -46.55210000     -32.54190000     -68.82220000
H      -47.45900000     -33.20960000     -68.73240000
H      -46.36660000     -31.94480000     -67.91650000
C      -45.34360000     -33.42160000     -69.06960000
C      -44.11070000     -33.10960000     -68.58880000
C      -45.39790000     -34.65980000     -69.84940000
H      -43.82830000     -32.33900000     -67.91590000
C      -44.10740000     -35.26040000     -69.91740000
C      -46.32020000     -35.25650000     -70.74210000
C      -45.74770000     -36.35610000     -71.34880000
S      -42.89850000     -34.41620000     -69.04960000
S      -43.97560000     -36.67950000     -70.97120000
H      -46.27900000     -36.97200000     -72.17610000
