40
Properties=species:S:1:pos:R:3 #=T CELL(abcABC):=T 1.889726e+02=T 90.00000=T Traj:=T positionsangstrom=T Step:=T 0=T Bead:=T pbc="F F F"
C      -42.34540000     -35.45440000     -73.18720000
C      -43.14900000     -34.37820000     -73.58480000
C      -44.51210000     -34.53390000     -73.83320000
C      -45.10150000     -35.77000000     -73.73940000
C      -44.32860000     -36.89990000     -73.36240000
C      -42.99260000     -36.69840000     -73.03040000
H      -41.31940000     -35.36240000     -72.89740000
H      -45.13400000     -33.74170000     -74.00840000
H      -44.71720000     -37.98760000     -73.24040000
H      -42.37990000     -37.51580000     -72.73650000
C      -46.54700000     -35.83950000     -73.99410000
H      -46.84280000     -36.63260000     -74.71110000
H      -46.88800000     -34.90790000     -74.47980000
C      -42.43250000     -33.00760000     -73.50500000
H      -42.25820000     -32.81980000     -72.43050000
H      -41.39490000     -33.07410000     -73.96450000
S      -47.66090000     -36.18520000     -72.52250000
S      -43.42820000     -31.64120000     -74.12300000
C      -47.42220000     -34.67700000     -71.46950000
H      -47.24120000     -33.71520000     -71.94580000
H      -48.39180000     -34.61890000     -70.90960000
C      -44.23140000     -30.97510000     -72.59680000
H      -44.82210000     -30.09350000     -72.92280000
H      -43.40500000     -30.72720000     -71.94860000
C      -45.19920000     -31.97740000     -71.97470000
H      -46.00830000     -32.28560000     -72.69350000
H      -44.60580000     -32.96410000     -71.80070000
C      -46.26110000     -34.80450000     -70.43260000
H      -45.30560000     -34.78120000     -71.01010000
H      -46.38550000     -35.83460000     -69.98150000
C      -46.23690000     -33.76310000     -69.33900000
C      -46.42280000     -34.03830000     -68.01990000
C      -46.03330000     -32.32910000     -69.46400000
H      -46.72220000     -35.06690000     -67.71520000
C      -46.13810000     -31.60490000     -68.27390000
C      -45.59310000     -31.50500000     -70.54870000
C      -45.60220000     -30.12780000     -70.17120000
S      -46.31380000     -32.65280000     -66.88580000
S      -45.88950000     -29.89980000     -68.45900000
H      -45.39460000     -29.33830000     -70.82080000
