40
Properties=species:S:1:pos:R:3 #=T CELL(abcABC):=T 1.889726e+02=T 90.00000=T Traj:=T positionsangstrom=T Step:=T 0=T Bead:=T pbc="F F F"
C      -42.59880000     -35.72230000     -73.30190000
C      -43.27190000     -34.57120000     -73.68660000
C      -44.65390000     -34.65950000     -73.89950000
C      -45.28520000     -35.90250000     -73.56650000
C      -44.57850000     -37.02520000     -73.13180000
C      -43.20010000     -36.97480000     -73.02940000
H      -41.47880000     -35.62030000     -72.98510000
H      -45.28680000     -33.77790000     -74.24210000
H      -45.14310000     -37.82970000     -72.85750000
H      -42.64810000     -37.91180000     -72.75880000
C      -46.74900000     -36.03450000     -73.84200000
H      -47.04350000     -36.91880000     -74.45150000
H      -47.21440000     -35.23970000     -74.43160000
C      -42.50270000     -33.26660000     -73.82690000
H      -42.07240000     -33.09530000     -72.84820000
H      -41.72110000     -33.33320000     -74.58790000
S      -47.82820000     -36.05110000     -72.31160000
S      -43.35690000     -31.65910000     -74.21590000
C      -47.19960000     -34.49930000     -71.47200000
H      -46.91320000     -33.91560000     -72.32040000
H      -48.05460000     -34.16600000     -70.96290000
C      -43.74370000     -30.99470000     -72.50550000
H      -43.97170000     -29.89840000     -72.61090000
H      -42.91100000     -31.20390000     -71.85150000
C      -44.99720000     -31.68530000     -71.87970000
H      -45.92750000     -31.56560000     -72.53250000
H      -44.80680000     -32.76330000     -71.93570000
C      -45.97710000     -34.65230000     -70.57580000
H      -45.01200000     -34.46710000     -71.04510000
H      -45.88290000     -35.65140000     -70.09060000
C      -46.10220000     -33.68070000     -69.43540000
C      -46.65620000     -34.01860000     -68.22340000
C      -45.82320000     -32.23800000     -69.51240000
H      -46.82020000     -34.96760000     -67.79050000
C      -45.99690000     -31.64240000     -68.27830000
C      -45.28560000     -31.27350000     -70.46590000
C      -45.14670000     -29.98780000     -69.97330000
S      -46.69790000     -32.61320000     -67.09190000
S      -45.74600000     -29.89180000     -68.32060000
H      -44.89680000     -29.05120000     -70.56970000
