40
Properties=species:S:1:pos:R:3 #=T CELL(abcABC):=T 1.889726e+02=T 90.00000=T Traj:=T positionsangstrom=T Step:=T 0=T Bead:=T pbc="F F F"
C      -42.85560000     -35.70360000     -72.40360000
C      -43.30300000     -34.85770000     -73.42370000
C      -44.62970000     -35.05890000     -73.89160000
C      -45.48540000     -35.97660000     -73.28210000
C      -44.95620000     -36.89460000     -72.28140000
C      -43.64290000     -36.67490000     -71.90140000
H      -41.77030000     -35.59980000     -72.16220000
H      -45.01910000     -34.47800000     -74.75990000
H      -45.49310000     -37.73450000     -71.85410000
H      -43.12530000     -37.24760000     -71.18350000
C      -46.86270000     -36.23130000     -73.84610000
H      -47.01290000     -37.23790000     -74.22900000
H      -47.05860000     -35.62140000     -74.71990000
C      -42.37380000     -33.73850000     -73.91660000
H      -41.50140000     -33.59800000     -73.20910000
H      -41.95620000     -34.15350000     -74.87500000
S      -48.18150000     -35.78880000     -72.52530000
S      -43.20250000     -32.20580000     -74.31190000
C      -47.58530000     -34.21370000     -71.91140000
H      -47.06180000     -33.72190000     -72.77990000
H      -48.49030000     -33.72420000     -71.57310000
C      -43.22410000     -31.51030000     -72.61210000
H      -43.50970000     -30.40680000     -72.73410000
H      -42.21520000     -31.47570000     -72.18910000
C      -44.19480000     -32.28440000     -71.73120000
H      -45.07620000     -32.36650000     -72.30290000
H      -43.73740000     -33.23880000     -71.52550000
C      -46.70290000     -34.30190000     -70.67800000
H      -45.66860000     -34.48850000     -70.82580000
H      -47.05930000     -35.14190000     -70.11390000
C      -46.75410000     -33.13270000     -69.75670000
C      -47.74180000     -33.00450000     -68.78380000
C      -45.73380000     -32.14090000     -69.62370000
H      -48.62750000     -33.62470000     -68.75110000
C      -45.90230000     -31.36700000     -68.47320000
C      -44.56040000     -31.68790000     -70.35570000
C      -43.89860000     -30.62990000     -69.73630000
S      -47.38120000     -31.72760000     -67.63280000
S      -44.63910000     -30.19300000     -68.25250000
H      -42.95890000     -30.14530000     -69.98800000
