40
Properties=species:S:1:pos:R:3 #=T CELL(abcABC):=T 1.889726e+02=T 90.00000=T Traj:=T positionsangstrom=T Step:=T 0=T Bead:=T pbc="F F F"
C      -42.83710000     -35.89960000     -72.22540000
C      -43.16670000     -35.06130000     -73.26860000
C      -44.48370000     -35.12680000     -73.70400000
C      -45.35980000     -36.09530000     -73.26230000
C      -45.04700000     -36.93010000     -72.18560000
C      -43.73310000     -36.80650000     -71.70060000
H      -41.79340000     -35.98070000     -72.00780000
H      -44.88880000     -34.38530000     -74.44560000
H      -45.68320000     -37.76240000     -71.94650000
H      -43.44850000     -37.55620000     -70.95540000
C      -46.75030000     -36.09980000     -73.87030000
H      -47.02560000     -37.04310000     -74.26250000
H      -46.82580000     -35.41830000     -74.72720000
C      -42.13780000     -34.17340000     -73.80320000
H      -41.22240000     -34.27410000     -73.24660000
H      -41.94740000     -34.52870000     -74.81730000
S      -48.11350000     -35.67560000     -72.67200000
S      -42.76470000     -32.51660000     -74.11070000
C      -47.55270000     -34.05740000     -71.92520000
H      -46.87310000     -33.49430000     -72.56110000
H      -48.52990000     -33.55550000     -71.77680000
C      -43.15700000     -31.79110000     -72.42560000
H      -43.54780000     -30.75010000     -72.64050000
H      -42.18140000     -31.63980000     -72.00740000
C      -44.09170000     -32.60220000     -71.49100000
H      -44.94080000     -32.83560000     -72.13360000
H      -43.58790000     -33.55250000     -71.17410000
C      -46.88520000     -34.28430000     -70.56890000
H      -45.86900000     -34.49180000     -70.77010000
H      -47.40910000     -35.09220000     -70.06640000
C      -46.91500000     -33.13710000     -69.66480000
C      -47.89660000     -32.90440000     -68.72150000
C      -45.82020000     -32.10850000     -69.61560000
H      -48.74780000     -33.50580000     -68.46090000
C      -46.08430000     -31.13850000     -68.65380000
C      -44.68380000     -31.70410000     -70.40320000
C      -44.11600000     -30.55620000     -69.99040000
S      -47.46020000     -31.43970000     -67.74330000
S      -44.93620000     -29.82350000     -68.66150000
H      -43.24430000     -30.05300000     -70.43250000
