40
Properties=species:S:1:pos:R:3 #=T CELL(abcABC):=T 1.889726e+02=T 90.00000=T Traj:=T positionsangstrom=T Step:=T 0=T Bead:=T pbc="F F F"
C      -46.77720000     -32.67660000     -74.92530000
C      -45.80420000     -33.26350000     -74.04260000
C      -45.10030000     -32.47230000     -73.17390000
C      -45.44180000     -31.16710000     -73.00020000
C      -46.44070000     -30.53140000     -73.80100000
C      -47.04780000     -31.32820000     -74.82000000
H      -47.38640000     -33.24000000     -75.66180000
H      -44.29550000     -33.00570000     -72.51070000
H      -46.82150000     -29.52130000     -73.61450000
H      -47.89720000     -30.96420000     -75.43110000
C      -44.78180000     -30.54200000     -71.67050000
H      -44.33450000     -29.55310000     -71.95110000
H      -43.88000000     -31.16450000     -71.42760000
C      -45.59550000     -34.78780000     -74.07260000
H      -45.50130000     -35.08200000     -75.04770000
H      -44.66780000     -35.06020000     -73.53600000
S      -46.09440000     -30.07590000     -70.49140000
S      -47.02870000     -35.78300000     -73.51670000
C      -46.98280000     -31.67250000     -70.25220000
H      -48.08700000     -31.48490000     -70.17660000
H      -46.84750000     -32.25530000     -71.15590000
C      -47.28220000     -35.19920000     -71.80500000
H      -48.37390000     -35.14910000     -71.80090000
H      -46.89770000     -34.13760000     -71.77750000
C      -46.76960000     -35.86860000     -70.48580000
H      -47.33890000     -35.42250000     -69.72420000
H      -46.99930000     -36.96390000     -70.43470000
C      -46.65970000     -32.57160000     -69.07290000
H      -47.42300000     -33.34130000     -68.94650000
H      -46.90170000     -31.96130000     -68.16960000
C      -45.21210000     -33.13100000     -69.07710000
C      -44.24050000     -32.23830000     -68.65150000
C      -44.66480000     -34.32510000     -69.68840000
H      -44.34830000     -31.31710000     -68.04940000
C      -43.24700000     -34.37780000     -69.58220000
C      -45.29290000     -35.57780000     -70.14150000
C      -44.30970000     -36.53680000     -70.39380000
S      -42.59840000     -32.79970000     -68.96720000
S      -42.68090000     -35.95950000     -70.03080000
H      -44.49310000     -37.53290000     -70.77120000
