40
Properties=species:S:1:pos:R:3 #=T CELL(abcABC):=T 1.889726e+02=T 90.00000=T Traj:=T positionsangstrom=T Step:=T 0=T Bead:=T pbc="F F F"
C      -42.93090000     -36.15980000     -72.07970000
C      -43.09560000     -35.22590000     -73.11530000
C      -44.40470000     -35.09490000     -73.69910000
C      -45.40280000     -35.98520000     -73.32850000
C      -45.21890000     -36.91750000     -72.34070000
C      -43.99430000     -36.90580000     -71.62950000
H      -41.95930000     -36.36990000     -71.63670000
H      -44.47680000     -34.39680000     -74.56160000
H      -46.04830000     -37.51150000     -71.94690000
H      -43.83770000     -37.64070000     -70.87390000
C      -46.77820000     -35.91760000     -73.90760000
H      -46.92230000     -36.75340000     -74.66650000
H      -46.96350000     -34.95670000     -74.44400000
C      -41.89070000     -34.44360000     -73.59230000
H      -41.03970000     -34.54170000     -72.85610000
H      -41.50920000     -34.75870000     -74.58630000
S      -48.15250000     -35.80940000     -72.64630000
S      -42.27080000     -32.69520000     -73.91310000
C      -47.62020000     -34.20100000     -71.76780000
H      -47.10790000     -33.53220000     -72.48620000
H      -48.61710000     -33.73790000     -71.58680000
C      -43.02000000     -32.02010000     -72.32300000
H      -43.16140000     -30.97880000     -72.48900000
H      -42.34500000     -32.33150000     -71.53740000
C      -44.42000000     -32.48430000     -71.74030000
H      -45.17810000     -32.48580000     -72.46230000
H      -44.29690000     -33.57390000     -71.39080000
C      -46.81420000     -34.34590000     -70.47630000
H      -45.74880000     -34.68330000     -70.64780000
H      -47.41520000     -35.16330000     -69.97850000
C      -46.87670000     -33.09050000     -69.56450000
C      -47.76500000     -32.78450000     -68.55040000
C      -45.86510000     -32.01980000     -69.60600000
H      -48.57600000     -33.35820000     -68.14550000
C      -46.18130000     -30.95130000     -68.79620000
C      -44.80360000     -31.65200000     -70.57840000
C      -44.31580000     -30.41070000     -70.35650000
S      -47.49470000     -31.26090000     -67.69740000
S      -45.07100000     -29.61760000     -68.97980000
H      -43.54260000     -29.85210000     -70.91000000
