40
Properties=species:S:1:pos:R:3 #=T CELL(abcABC):=T 1.889726e+02=T 90.00000=T Traj:=T positionsangstrom=T Step:=T 0=T Bead:=T pbc="F F F"
C      -42.85630000     -36.31680000     -72.05490000
C      -43.11540000     -35.25610000     -72.97300000
C      -44.36310000     -35.28260000     -73.65380000
C      -45.41700000     -36.10520000     -73.19900000
C      -45.17200000     -37.08640000     -72.19770000
C      -43.86980000     -37.23780000     -71.67370000
H      -41.84100000     -36.29020000     -71.64190000
H      -44.52550000     -34.62640000     -74.47580000
H      -45.96510000     -37.77770000     -72.00910000
H      -43.58970000     -37.96390000     -70.93370000
C      -46.79530000     -35.96180000     -73.78820000
H      -47.08860000     -36.92960000     -74.25100000
H      -46.89730000     -35.19880000     -74.53050000
C      -41.96330000     -34.42670000     -73.55160000
H      -41.14350000     -34.46730000     -72.83570000
H      -41.57210000     -34.88050000     -74.46380000
S      -48.14570000     -35.77590000     -72.46470000
S      -42.30490000     -32.62320000     -73.92260000
C      -47.89780000     -34.15260000     -71.67170000
H      -47.31290000     -33.60140000     -72.43260000
H      -48.87720000     -33.66640000     -71.62260000
C      -42.87400000     -31.80100000     -72.34550000
H      -42.92050000     -30.76040000     -72.67830000
H      -42.01880000     -31.72500000     -71.61800000
C      -44.14110000     -32.36120000     -71.80190000
H      -44.83750000     -32.47010000     -72.63900000
H      -43.92840000     -33.34940000     -71.30300000
C      -47.01710000     -34.33810000     -70.40320000
H      -46.07080000     -34.70900000     -70.82940000
H      -47.37640000     -35.01270000     -69.69530000
C      -46.85240000     -33.04360000     -69.64240000
C      -47.71160000     -32.90490000     -68.57940000
C      -46.00450000     -31.88520000     -69.91200000
H      -48.41250000     -33.63940000     -68.24800000
C      -46.22780000     -30.91500000     -68.95230000
C      -44.87870000     -31.46000000     -70.76600000
C      -44.31440000     -30.24390000     -70.40920000
S      -47.46510000     -31.34250000     -67.74460000
S      -45.07140000     -29.57350000     -69.06020000
H      -43.55400000     -29.70750000     -70.94540000
