40
Properties=species:S:1:pos:R:3 #=T CELL(abcABC):=T 1.889726e+02=T 90.00000=T Traj:=T positionsangstrom=T Step:=T 0=T Bead:=T pbc="F F F"
C      -42.77650000     -36.50870000     -72.18320000
C      -43.13240000     -35.39760000     -72.97580000
C      -44.38500000     -35.24970000     -73.44310000
C      -45.44420000     -36.19610000     -73.09320000
C      -45.10490000     -37.21880000     -72.17510000
C      -43.77520000     -37.45650000     -71.89710000
H      -41.69920000     -36.58630000     -71.95800000
H      -44.64940000     -34.36630000     -73.97650000
H      -46.01390000     -37.73380000     -71.87120000
H      -43.50410000     -38.37850000     -71.29390000
C      -46.83140000     -35.94610000     -73.63700000
H      -47.09140000     -36.75120000     -74.31840000
H      -46.69340000     -35.02830000     -74.28650000
C      -42.00970000     -34.42930000     -73.20360000
H      -41.41120000     -34.27890000     -72.30670000
H      -41.36460000     -34.90850000     -73.97340000
S      -48.19370000     -35.83410000     -72.46980000
S      -42.53010000     -32.79980000     -73.90270000
C      -47.92150000     -34.16570000     -71.70890000
H      -47.74420000     -33.32510000     -72.39090000
H      -48.77860000     -33.92350000     -71.05230000
C      -42.99830000     -31.91500000     -72.39740000
H      -42.76310000     -30.81880000     -72.50330000
H      -42.22980000     -32.22490000     -71.61240000
C      -44.31620000     -32.26950000     -71.80660000
H      -45.08820000     -32.45860000     -72.60980000
H      -44.20230000     -33.26330000     -71.50850000
C      -46.67100000     -34.11720000     -70.69480000
H      -45.71370000     -34.23400000     -71.24130000
H      -46.62410000     -35.10890000     -70.15370000
C      -46.67180000     -32.92330000     -69.73420000
C      -47.59760000     -32.84050000     -68.72840000
C      -45.81900000     -31.73220000     -69.87450000
H      -48.31690000     -33.58040000     -68.47370000
C      -46.10120000     -30.84190000     -68.81270000
C      -44.78420000     -31.34270000     -70.75260000
C      -44.20420000     -30.11510000     -70.39120000
S      -47.45360000     -31.35040000     -67.82060000
S      -45.17710000     -29.37880000     -69.04810000
H      -43.40540000     -29.62720000     -70.84920000
