40
Properties=species:S:1:pos:R:3 #=T CELL(abcABC):=T 1.889726e+02=T 90.00000=T Traj:=T positionsangstrom=T Step:=T 0=T Bead:=T pbc="F F F"
C      -46.45510000     -29.24570000     -70.35600000
C      -46.90730000     -30.60660000     -70.17040000
C      -47.29700000     -31.34610000     -71.29500000
C      -47.38390000     -30.76450000     -72.59830000
C      -46.85240000     -29.44270000     -72.74080000
C      -46.39380000     -28.69440000     -71.65790000
H      -46.19240000     -28.69010000     -69.48570000
H      -47.61500000     -32.36350000     -71.22130000
H      -46.77460000     -29.16390000     -73.81740000
H      -45.75010000     -27.84300000     -71.80530000
C      -47.93530000     -31.50030000     -73.80580000
H      -47.48970000     -31.13730000     -74.73860000
H      -49.03020000     -31.39140000     -73.89150000
C      -46.77880000     -31.18620000     -68.84650000
H      -45.76990000     -31.41010000     -68.55300000
H      -47.06690000     -30.43500000     -68.13290000
S      -47.59920000     -33.22080000     -73.79510000
S      -47.65810000     -32.78290000     -68.38010000
C      -45.80070000     -33.41340000     -73.53940000
H      -45.28810000     -33.02870000     -74.33840000
H      -45.54390000     -32.94970000     -72.64570000
C      -46.31740000     -34.06320000     -68.54860000
H      -46.78260000     -34.94380000     -68.24210000
H      -45.54820000     -33.92540000     -67.79060000
C      -45.70110000     -34.16810000     -70.01530000
H      -46.52890000     -34.65320000     -70.58200000
H      -45.49910000     -33.15510000     -70.36840000
C      -45.45280000     -34.91600000     -73.33390000
H      -45.68140000     -35.41420000     -74.30610000
H      -46.10550000     -35.35760000     -72.54680000
C      -44.04900000     -35.09730000     -72.85230000
C      -42.95780000     -35.45220000     -73.65620000
C      -43.77740000     -35.24390000     -71.42560000
H      -42.87270000     -35.50440000     -74.75420000
C      -42.50580000     -35.71070000     -71.20420000
C      -44.43900000     -34.97960000     -70.18950000
C      -43.66370000     -35.24180000     -69.09780000
S      -41.50940000     -35.78590000     -72.69630000
S      -42.09640000     -35.85780000     -69.53400000
H      -44.00120000     -35.15280000     -68.04460000
