40
Properties=species:S:1:pos:R:3 #=T CELL(abcABC):=T 1.889726e+02=T 90.00000=T Traj:=T positionsangstrom=T Step:=T 0=T Bead:=T pbc="F F F"
C      -47.14200000     -33.19260000     -74.71640000
C      -46.01530000     -33.73570000     -74.03950000
C      -45.25320000     -32.82610000     -73.28670000
C      -45.74920000     -31.48770000     -73.23300000
C      -46.83020000     -31.01600000     -73.93840000
C      -47.50690000     -31.89550000     -74.76520000
H      -47.68700000     -33.98040000     -75.26720000
H      -44.45250000     -33.22640000     -72.61160000
H      -47.01050000     -29.95010000     -74.02590000
H      -48.33420000     -31.61530000     -75.43630000
C      -45.10330000     -30.59310000     -72.22000000
H      -44.76670000     -29.62530000     -72.73510000
H      -44.27420000     -30.91650000     -71.70390000
C      -45.64260000     -35.16850000     -74.23960000
H      -45.86900000     -35.54230000     -75.24510000
H      -44.63990000     -35.30340000     -74.04550000
S      -46.26600000     -30.05760000     -70.82990000
S      -46.57600000     -36.39410000     -73.12390000
C      -46.91820000     -31.73650000     -70.35060000
H      -48.00240000     -31.61540000     -70.33280000
H      -46.55120000     -32.52430000     -71.08520000
C      -47.25860000     -35.30310000     -71.76320000
H      -48.35670000     -35.59670000     -71.63340000
H      -47.27560000     -34.29120000     -72.15230000
C      -46.61980000     -35.35970000     -70.29790000
H      -47.16540000     -34.55840000     -69.73220000
H      -46.87630000     -36.38700000     -69.83730000
C      -46.50160000     -32.28090000     -68.93520000
H      -47.25720000     -32.98990000     -68.62760000
H      -46.67220000     -31.45340000     -68.25980000
C      -45.12330000     -32.79680000     -68.86080000
C      -44.15470000     -32.02510000     -68.32050000
C      -44.61860000     -33.99310000     -69.47410000
H      -44.46370000     -31.01480000     -68.05740000
C      -43.23610000     -34.06790000     -69.38510000
C      -45.12560000     -35.11950000     -70.17570000
C      -44.11420000     -35.97470000     -70.68860000
S      -42.56410000     -32.67580000     -68.57900000
S      -42.47980000     -35.36450000     -70.40580000
H      -44.21770000     -36.94660000     -71.14440000
