40
Properties=species:S:1:pos:R:3 #=T CELL(abcABC):=T 1.889726e+02=T 90.00000=T Traj:=T positionsangstrom=T Step:=T 0=T Bead:=T pbc="F F F"
C      -47.12230000     -33.38410000     -74.74100000
C      -46.05760000     -33.85000000     -73.96200000
C      -45.34350000     -32.86390000     -73.25110000
C      -45.80170000     -31.52470000     -73.19540000
C      -46.94200000     -31.12960000     -73.95840000
C      -47.56140000     -32.02580000     -74.73730000
H      -47.61020000     -34.16080000     -75.37310000
H      -44.46690000     -33.17920000     -72.78320000
H      -47.23810000     -30.04380000     -73.87560000
H      -48.49760000     -31.77230000     -75.19460000
C      -45.05730000     -30.63070000     -72.28570000
H      -45.13020000     -29.67400000     -72.76310000
H      -44.00000000     -30.88690000     -72.15950000
C      -45.46440000     -35.20900000     -73.93030000
H      -45.42040000     -35.74010000     -74.95080000
H      -44.39250000     -35.17100000     -73.46980000
S      -46.08270000     -30.31600000     -70.75680000
S      -46.55710000     -36.40400000     -72.99290000
C      -47.02680000     -31.86670000     -70.31970000
H      -48.05170000     -31.58880000     -70.49740000
H      -46.81670000     -32.63370000     -71.07750000
C      -47.31170000     -35.32210000     -71.75700000
H      -48.33340000     -35.57810000     -71.63340000
H      -47.31440000     -34.26610000     -71.99520000
C      -46.62820000     -35.45030000     -70.39520000
H      -47.21670000     -34.99500000     -69.62890000
H      -46.53040000     -36.48560000     -70.21300000
C      -46.59340000     -32.26930000     -68.92890000
H      -47.14990000     -33.21200000     -68.56880000
H      -46.76310000     -31.58500000     -68.08050000
C      -45.10670000     -32.57740000     -69.02200000
C      -44.10560000     -31.86780000     -68.35800000
C      -44.58360000     -33.72170000     -69.74230000
H      -44.27700000     -31.20460000     -67.56190000
C      -43.18980000     -33.82760000     -69.56350000
C      -45.16410000     -34.88370000     -70.40170000
C      -44.18600000     -35.76920000     -70.85350000
S      -42.56430000     -32.60730000     -68.60200000
S      -42.56770000     -35.27230000     -70.34300000
H      -44.33580000     -36.68610000     -71.37280000
