40
Properties=species:S:1:pos:R:3 #=T CELL(abcABC):=T 1.889726e+02=T 90.00000=T Traj:=T positionsangstrom=T Step:=T 0=T Bead:=T pbc="F F F"
C      -42.96650000     -36.81750000     -71.79110000
C      -43.18880000     -35.61520000     -72.43440000
C      -44.45330000     -35.38070000     -73.10830000
C      -45.43970000     -36.34350000     -72.93920000
C      -45.16240000     -37.55500000     -72.32270000
C      -43.93730000     -37.82930000     -71.70350000
H      -41.98160000     -36.86900000     -71.35190000
H      -44.60040000     -34.46700000     -73.70450000
H      -45.90750000     -38.32990000     -72.28400000
H      -43.73790000     -38.83890000     -71.38080000
C      -46.80340000     -36.13540000     -73.52690000
H      -47.07610000     -37.10990000     -73.97730000
H      -46.82270000     -35.41780000     -74.29360000
C      -42.02570000     -34.69500000     -72.39410000
H      -41.73580000     -34.32040000     -71.42320000
H      -41.14370000     -35.27310000     -72.69490000
S      -48.17030000     -35.55240000     -72.43250000
S      -42.18760000     -33.26850000     -73.56460000
C      -47.56790000     -33.99640000     -71.65530000
H      -46.96790000     -33.36800000     -72.40970000
H      -48.44160000     -33.30890000     -71.45870000
C      -43.10190000     -31.91180000     -72.64460000
H      -43.11960000     -31.07830000     -73.34760000
H      -42.41080000     -31.57830000     -71.88530000
C      -44.49500000     -32.36100000     -72.12080000
H      -45.07960000     -32.41180000     -73.03190000
H      -44.36720000     -33.28940000     -71.53560000
C      -46.72170000     -34.23050000     -70.33830000
H      -45.73700000     -34.81280000     -70.39740000
H      -47.37220000     -34.87530000     -69.69310000
C      -46.64020000     -32.86310000     -69.62120000
C      -47.46740000     -32.57410000     -68.55140000
C      -45.91210000     -31.67600000     -70.04900000
H      -48.20450000     -33.25750000     -68.12870000
C      -46.13690000     -30.56000000     -69.21770000
C      -44.97550000     -31.30980000     -71.15320000
C      -44.55120000     -29.99580000     -71.01300000
S      -47.32450000     -30.90090000     -67.96880000
S      -45.25810000     -29.15060000     -69.67980000
H      -43.81040000     -29.49090000     -71.53230000
