40
Properties=species:S:1:pos:R:3 #=T CELL(abcABC):=T 1.889726e+02=T 90.00000=T Traj:=T positionsangstrom=T Step:=T 0=T Bead:=T pbc="F F F"
C      -42.93340000     -36.95430000     -71.55600000
C      -43.05890000     -35.72800000     -72.29760000
C      -44.24680000     -35.45480000     -72.95670000
C      -45.29440000     -36.37360000     -72.96640000
C      -45.16960000     -37.54390000     -72.22980000
C      -44.01620000     -37.84530000     -71.53160000
H      -42.03980000     -37.22660000     -70.99700000
H      -44.32390000     -34.55130000     -73.58160000
H      -46.00620000     -38.26340000     -72.18530000
H      -43.94460000     -38.68540000     -70.84220000
C      -46.64750000     -36.08220000     -73.62330000
H      -47.07870000     -36.85850000     -74.22130000
H      -46.50290000     -35.22700000     -74.28370000
C      -41.91370000     -34.67850000     -72.28950000
H      -41.83310000     -34.27340000     -71.26190000
H      -40.98880000     -35.21650000     -72.50890000
S      -48.06600000     -35.69250000     -72.38760000
S      -42.07840000     -33.37560000     -73.53080000
C      -47.49830000     -34.09470000     -71.58080000
H      -46.88010000     -33.48840000     -72.30370000
H      -48.40190000     -33.47240000     -71.45080000
C      -42.99260000     -32.03850000     -72.59160000
H      -43.07900000     -31.28060000     -73.31070000
H      -42.38930000     -31.74360000     -71.80020000
C      -44.37650000     -32.38450000     -72.00060000
H      -45.02270000     -32.61310000     -72.89080000
H      -44.30450000     -33.36460000     -71.50720000
C      -46.79670000     -34.20970000     -70.26640000
H      -45.82310000     -34.77030000     -70.35790000
H      -47.48420000     -34.82440000     -69.58190000
C      -46.68950000     -32.79170000     -69.62210000
C      -47.42170000     -32.47870000     -68.44300000
C      -45.99770000     -31.58030000     -70.12360000
H      -47.85290000     -33.17480000     -67.76180000
C      -46.31580000     -30.44300000     -69.35440000
C      -45.05780000     -31.29080000     -71.19870000
C      -44.75310000     -29.94940000     -71.25030000
S      -47.25930000     -30.79720000     -67.95090000
S      -45.68730000     -28.96370000     -70.08800000
H      -44.14520000     -29.58670000     -72.13580000
