40
Properties=species:S:1:pos:R:3 #=T CELL(abcABC):=T 1.889726e+02=T 90.00000=T Traj:=T positionsangstrom=T Step:=T 0=T Bead:=T pbc="F F F"
C      -41.16700000     -35.24510000     -70.93530000
C      -42.42510000     -35.24310000     -70.31940000
C      -43.49790000     -35.64030000     -71.07050000
C      -43.29210000     -36.22410000     -72.35110000
C      -42.03940000     -36.19350000     -72.90320000
C      -40.89650000     -35.79400000     -72.14780000
H      -40.32980000     -34.90160000     -70.25110000
H      -44.45580000     -35.70360000     -70.61220000
H      -41.86720000     -36.66520000     -73.90610000
H      -39.85500000     -35.89060000     -72.44600000
C      -44.48220000     -36.56480000     -73.13450000
H      -45.37880000     -36.63040000     -72.57850000
H      -44.51040000     -37.49400000     -73.63540000
C      -42.61700000     -34.74710000     -68.96970000
H      -43.57590000     -35.04720000     -68.47880000
H      -41.83830000     -35.18480000     -68.31980000
S      -44.85350000     -35.26180000     -74.47500000
S      -42.51930000     -32.87130000     -69.03240000
C      -45.25440000     -33.82790000     -73.39770000
H      -44.27160000     -33.47200000     -72.94160000
H      -45.52870000     -33.04910000     -74.04930000
C      -44.19780000     -32.40980000     -69.84010000
H      -44.17610000     -32.73960000     -70.84290000
H      -44.03190000     -31.33100000     -69.91750000
C      -45.46440000     -32.86510000     -69.11480000
H      -45.72950000     -33.91360000     -69.44900000
H      -45.36860000     -32.86620000     -68.05210000
C      -46.43710000     -34.08200000     -72.51890000
H      -46.12380000     -34.56660000     -71.56550000
H      -47.14430000     -34.74260000     -73.06500000
C      -47.24680000     -32.84670000     -72.17640000
C      -48.04220000     -32.34980000     -73.17660000
C      -47.31240000     -32.09560000     -70.94570000
H      -48.31330000     -32.77820000     -74.12400000
C      -48.33660000     -31.08370000     -71.00790000
C      -46.72980000     -32.07560000     -69.53270000
C      -47.31140000     -31.12130000     -68.76520000
S      -49.02230000     -31.05900000     -72.61760000
S      -48.62630000     -30.23090000     -69.51600000
H      -46.97380000     -30.76950000     -67.78480000
