40
Properties=species:S:1:pos:R:3 #=T CELL(abcABC):=T 1.889726e+02=T 90.00000=T Traj:=T positionsangstrom=T Step:=T 0=T Bead:=T pbc="F F F"
C      -42.60760000     -36.84910000     -70.69290000
C      -42.80720000     -35.99130000     -71.72120000
C      -43.99930000     -36.04190000     -72.51170000
C      -44.94770000     -37.02330000     -72.34240000
C      -44.68280000     -38.01920000     -71.35670000
C      -43.45840000     -37.95750000     -70.58620000
H      -41.76720000     -36.80440000     -70.01520000
H      -44.17220000     -35.32480000     -73.24430000
H      -45.27290000     -38.91640000     -71.14530000
H      -43.36430000     -38.76460000     -69.84080000
C      -46.23860000     -36.99300000     -73.13580000
H      -46.63140000     -38.02060000     -73.32970000
H      -46.02810000     -36.45810000     -74.11120000
C      -41.83030000     -34.81820000     -71.89980000
H      -41.60540000     -34.41310000     -70.92480000
H      -40.87620000     -35.13980000     -72.35850000
S      -47.56990000     -35.98220000     -72.23350000
S      -42.42820000     -33.49090000     -73.05190000
C      -46.85550000     -34.30660000     -72.16010000
H      -46.06230000     -34.23250000     -72.92360000
H      -47.61130000     -33.56600000     -72.42360000
C      -43.20290000     -32.36150000     -71.81450000
H      -42.40220000     -31.67370000     -71.31960000
H      -43.57180000     -32.95510000     -70.96510000
C      -44.28160000     -31.50930000     -72.43400000
H      -43.86350000     -30.74570000     -73.19950000
H      -45.01980000     -32.05020000     -73.05230000
C      -46.17380000     -33.88050000     -70.77540000
H      -45.04870000     -33.98900000     -70.74590000
H      -46.51980000     -34.57720000     -70.04820000
C      -46.61870000     -32.47410000     -70.25300000
C      -47.77240000     -32.39810000     -69.45760000
C      -46.10680000     -31.16120000     -70.53080000
H      -48.43300000     -33.14700000     -69.01130000
C      -46.78030000     -30.17390000     -69.83530000
C      -45.13150000     -30.65870000     -71.49340000
C      -44.94650000     -29.31180000     -71.34420000
S      -48.16080000     -30.70610000     -69.05420000
S      -46.13220000     -28.62070000     -70.27060000
H      -44.29390000     -28.68020000     -71.87260000
