40
Properties=species:S:1:pos:R:3 #=T CELL(abcABC):=T 1.889726e+02=T 90.00000=T Traj:=T positionsangstrom=T Step:=T 0=T Bead:=T pbc="F F F"
C      -44.02260000     -30.12120000     -72.72480000
C      -43.72020000     -31.27190000     -73.46980000
C      -42.79010000     -32.20100000     -72.90200000
C      -42.12890000     -31.93170000     -71.68610000
C      -42.31850000     -30.64910000     -71.10640000
C      -43.33880000     -29.83880000     -71.53820000
H      -44.69250000     -29.42620000     -73.14980000
H      -42.56580000     -33.13360000     -73.44190000
H      -41.79620000     -30.38780000     -70.24130000
H      -43.62620000     -28.96180000     -70.90010000
C      -41.20860000     -32.97660000     -71.14730000
H      -40.75270000     -32.55880000     -70.25910000
H      -40.41870000     -33.14150000     -71.88040000
C      -44.35760000     -31.58390000     -74.81170000
H      -45.15440000     -30.79990000     -74.98350000
H      -43.66490000     -31.39200000     -75.63630000
S      -42.04860000     -34.67570000     -70.71150000
S      -44.98010000     -33.34340000     -74.88570000
C      -43.69050000     -34.22560000     -70.02870000
H      -43.53380000     -33.74360000     -69.10020000
H      -44.11660000     -33.42660000     -70.63140000
C      -45.80200000     -33.36920000     -73.21120000
H      -46.34970000     -32.43190000     -72.95760000
H      -45.11610000     -33.33200000     -72.38100000
C      -46.81280000     -34.51530000     -72.99950000
H      -47.53000000     -34.66560000     -73.88330000
H      -46.34740000     -35.55270000     -72.90070000
C      -44.64370000     -35.39970000     -70.20560000
H      -44.37380000     -36.38980000     -69.78630000
H      -44.77350000     -35.47660000     -71.39310000
C      -45.96860000     -35.01480000     -69.61730000
C      -45.98170000     -34.80490000     -68.25860000
C      -47.15840000     -34.56660000     -70.32790000
H      -45.27990000     -35.09430000     -67.50180000
C      -48.19350000     -34.26250000     -69.45080000
C      -47.60900000     -34.34400000     -71.67220000
C      -48.88090000     -33.80750000     -71.73240000
S      -47.58730000     -34.29530000     -67.74550000
S      -49.70720000     -33.69780000     -70.21850000
H      -49.23760000     -33.20670000     -72.54250000
