40
Properties=species:S:1:pos:R:3 #=T CELL(abcABC):=T 1.889726e+02=T 90.00000=T Traj:=T positionsangstrom=T Step:=T 0=T Bead:=T pbc="F F F"
C      -47.30690000     -34.36470000     -74.25770000
C      -46.06690000     -34.29640000     -73.57630000
C      -45.85960000     -33.08920000     -73.02340000
C      -46.77060000     -32.02060000     -72.94180000
C      -48.02490000     -32.23990000     -73.50250000
C      -48.27510000     -33.41420000     -74.20770000
H      -47.43480000     -35.29480000     -74.78170000
H      -44.86080000     -33.06010000     -72.53670000
H      -48.83710000     -31.55440000     -73.40850000
H      -49.22570000     -33.53090000     -74.71130000
C      -46.42380000     -30.73900000     -72.29210000
H      -46.66040000     -29.84200000     -72.92040000
H      -45.34720000     -30.73690000     -71.94800000
C      -45.07660000     -35.42580000     -73.39840000
H      -44.73940000     -35.79030000     -74.41500000
H      -44.24350000     -34.98440000     -72.79010000
S      -47.57270000     -30.40730000     -70.90730000
S      -45.61530000     -36.82190000     -72.31160000
C      -47.51600000     -31.95490000     -69.90580000
H      -48.46770000     -31.80460000     -69.38210000
H      -47.69210000     -32.82940000     -70.59350000
C      -46.58310000     -35.84350000     -70.98290000
H      -47.34580000     -36.53210000     -70.72540000
H      -47.12820000     -35.02830000     -71.45110000
C      -45.77060000     -35.53550000     -69.70990000
H      -46.49040000     -35.05710000     -69.04030000
H      -45.54180000     -36.53310000     -69.24530000
C      -46.29940000     -32.20980000     -68.98470000
H      -46.55650000     -33.20400000     -68.56780000
H      -46.40780000     -31.45290000     -68.12130000
C      -44.89090000     -32.25920000     -69.49650000
C      -44.08370000     -31.11760000     -69.58560000
C      -44.14520000     -33.42450000     -69.86220000
H      -44.49670000     -30.11620000     -69.15800000
C      -42.79420000     -33.16170000     -70.18930000
C      -44.46940000     -34.82150000     -69.95120000
C      -43.36410000     -35.53480000     -70.41850000
S      -42.43880000     -31.43770000     -70.23850000
S      -41.92760000     -34.54520000     -70.61980000
H      -43.32500000     -36.57910000     -70.55890000
