40
Properties=species:S:1:pos:R:3 #=T CELL(abcABC):=T 1.889726e+02=T 90.00000=T Traj:=T positionsangstrom=T Step:=T 0=T Bead:=T pbc="F F F"
C      -47.27560000     -34.45120000     -74.27370000
C      -46.08660000     -34.16810000     -73.63860000
C      -45.96710000     -32.93000000     -73.00990000
C      -47.02820000     -32.03140000     -73.06160000
C      -48.20800000     -32.32760000     -73.78750000
C      -48.37310000     -33.56990000     -74.39100000
H      -47.35190000     -35.40300000     -74.79820000
H      -45.07820000     -32.56250000     -72.61340000
H      -49.04170000     -31.60300000     -73.78750000
H      -49.30970000     -33.85080000     -74.82170000
C      -46.91780000     -30.65840000     -72.45180000
H      -47.55380000     -29.98330000     -73.07950000
H      -45.88480000     -30.28820000     -72.40370000
C      -44.99460000     -35.19220000     -73.52810000
H      -44.70640000     -35.63930000     -74.44330000
H      -44.14310000     -34.65600000     -73.13960000
S      -47.64680000     -30.61640000     -70.73350000
S      -45.37840000     -36.64060000     -72.40650000
C      -47.56810000     -32.40800000     -70.20130000
H      -48.50440000     -32.85860000     -69.90310000
H      -47.40590000     -32.93590000     -71.07150000
C      -46.13070000     -35.97140000     -70.88930000
H      -47.05350000     -36.61940000     -70.63140000
H      -46.49390000     -34.98370000     -71.00130000
C      -45.18810000     -36.00760000     -69.64970000
H      -45.75840000     -35.86660000     -68.71070000
H      -44.73720000     -37.00730000     -69.55340000
C      -46.51180000     -32.69650000     -69.16420000
H      -46.53720000     -33.75170000     -68.83390000
H      -46.76690000     -32.15500000     -68.21940000
C      -45.10690000     -32.42100000     -69.50690000
C      -44.54010000     -31.15890000     -69.60820000
C      -44.17310000     -33.48840000     -69.79630000
H      -45.01680000     -30.21620000     -69.34840000
C      -42.93510000     -32.94820000     -70.14740000
C      -44.08110000     -34.99620000     -69.83410000
C      -42.86680000     -35.41000000     -70.17650000
S      -42.81110000     -31.20250000     -70.13500000
S      -41.65730000     -34.14370000     -70.41420000
H      -42.62630000     -36.45550000     -70.45140000
