40
Properties=species:S:1:pos:R:3 #=T CELL(abcABC):=T 1.889726e+02=T 90.00000=T Traj:=T positionsangstrom=T Step:=T 0=T Bead:=T pbc="F F F"
C      -46.53740000     -29.35480000     -70.23570000
C      -47.06830000     -30.67110000     -70.14040000
C      -47.47210000     -31.39030000     -71.25150000
C      -47.35520000     -30.76660000     -72.48370000
C      -46.81500000     -29.48220000     -72.64570000
C      -46.45590000     -28.69670000     -71.49860000
H      -46.12470000     -28.86580000     -69.29600000
H      -47.99780000     -32.36910000     -71.21620000
H      -46.72260000     -29.06830000     -73.58090000
H      -46.15430000     -27.69760000     -71.81210000
C      -47.94620000     -31.57590000     -73.61680000
H      -47.70160000     -31.08920000     -74.58180000
H      -49.04660000     -31.55470000     -73.53980000
C      -47.21120000     -31.25040000     -68.71990000
H      -46.34160000     -31.02710000     -68.18410000
H      -47.96600000     -30.71000000     -68.15600000
S      -47.64600000     -33.37850000     -73.80330000
S      -47.80740000     -32.99890000     -68.51440000
C      -45.78710000     -33.52750000     -73.56500000
H      -45.33520000     -33.06450000     -74.44290000
H      -45.43540000     -33.00490000     -72.67580000
C      -46.20460000     -34.02970000     -68.70610000
H      -46.36170000     -35.04090000     -68.29940000
H      -45.50540000     -33.62840000     -68.05520000
C      -45.59820000     -33.97910000     -70.05720000
H      -46.27140000     -34.36770000     -70.77120000
H      -45.45800000     -32.90770000     -70.40330000
C      -45.45970000     -35.01790000     -73.33340000
H      -45.81030000     -35.63490000     -74.16000000
H      -46.13600000     -35.29120000     -72.52620000
C      -44.08090000     -35.32110000     -72.85860000
C      -43.08700000     -35.95270000     -73.54570000
C      -43.64130000     -34.97940000     -71.46230000
H      -43.12780000     -36.38280000     -74.54910000
C      -42.31230000     -35.35920000     -71.27220000
C      -44.25400000     -34.65730000     -70.20060000
C      -43.40560000     -34.76820000     -69.18010000
S      -41.56670000     -36.06860000     -72.67280000
S      -41.78860000     -35.31730000     -69.65270000
H      -43.49470000     -34.61110000     -68.13010000
