40
Properties=species:S:1:pos:R:3 #=T CELL(abcABC):=T 1.889726e+02=T 90.00000=T Traj:=T positionsangstrom=T Step:=T 0=T Bead:=T pbc="F F F"
C      -47.15750000     -34.52810000     -74.26960000
C      -46.04130000     -34.17390000     -73.60390000
C      -45.95150000     -32.89570000     -73.03150000
C      -47.08150000     -32.09160000     -73.01830000
C      -48.19570000     -32.36650000     -73.82750000
C      -48.29830000     -33.66010000     -74.41420000
H      -47.15140000     -35.51140000     -74.73210000
H      -45.12950000     -32.68940000     -72.38740000
H      -49.01920000     -31.63610000     -73.99550000
H      -49.18400000     -33.95840000     -74.95790000
C      -46.98220000     -30.76380000     -72.24600000
H      -47.34440000     -30.02340000     -72.87020000
H      -45.95510000     -30.48120000     -72.08560000
C      -44.89260000     -35.11060000     -73.46270000
H      -44.55910000     -35.58820000     -74.45560000
H      -44.03110000     -34.70010000     -72.98700000
S      -47.93720000     -30.74310000     -70.67730000
S      -45.26920000     -36.68990000     -72.48070000
C      -47.82220000     -32.42640000     -70.07150000
H      -48.71980000     -32.67770000     -69.41920000
H      -47.75490000     -33.11840000     -70.95990000
C      -46.14960000     -36.04530000     -71.00050000
H      -46.90680000     -36.81440000     -70.69130000
H      -46.61820000     -35.13020000     -71.37690000
C      -45.21150000     -35.73840000     -69.79870000
H      -45.80990000     -35.09060000     -69.16730000
H      -45.02080000     -36.61240000     -69.21280000
C      -46.57460000     -32.77110000     -69.16770000
H      -46.74990000     -33.74640000     -68.81530000
H      -46.73100000     -32.16700000     -68.27770000
C      -45.14920000     -32.49190000     -69.66510000
C      -44.61950000     -31.21670000     -69.66000000
C      -44.07720000     -33.47010000     -69.98730000
H      -45.18420000     -30.34240000     -69.52520000
C      -42.79410000     -32.85510000     -70.11340000
C      -43.92060000     -34.90620000     -70.03620000
C      -42.65790000     -35.35840000     -70.22050000
S      -42.91180000     -31.16300000     -69.92080000
S      -41.50910000     -34.00010000     -70.45070000
H      -42.32440000     -36.35560000     -70.27520000
