40
Properties=species:S:1:pos:R:3 #=T CELL(abcABC):=T 1.889726e+02=T 90.00000=T Traj:=T positionsangstrom=T Step:=T 0=T Bead:=T pbc="F F F"
C      -47.09450000     -34.52290000     -74.31590000
C      -45.94480000     -34.15710000     -73.57410000
C      -45.97870000     -32.98800000     -72.82570000
C      -47.08620000     -32.08340000     -72.90610000
C      -48.20480000     -32.45270000     -73.68410000
C      -48.20040000     -33.70020000     -74.33600000
H      -47.08370000     -35.57270000     -74.71640000
H      -44.99120000     -32.66610000     -72.30700000
H      -49.02120000     -31.79620000     -73.73920000
H      -49.04020000     -34.00690000     -74.97770000
C      -47.05180000     -30.82430000     -72.21290000
H      -47.40220000     -29.92720000     -72.82850000
H      -46.00780000     -30.66220000     -71.81370000
C      -44.78510000     -35.13320000     -73.45890000
H      -44.58560000     -35.36400000     -74.47910000
H      -43.92890000     -34.61840000     -73.01050000
S      -48.11070000     -30.88470000     -70.75920000
S      -45.18350000     -36.73170000     -72.55680000
C      -47.70170000     -32.55350000     -70.05230000
H      -48.64100000     -32.66090000     -69.52360000
H      -47.57510000     -33.22640000     -70.89580000
C      -45.89060000     -36.05130000     -71.03330000
H      -46.53360000     -36.77100000     -70.78220000
H      -46.54530000     -35.15470000     -71.26060000
C      -44.97790000     -35.98970000     -69.86200000
H      -45.59040000     -36.04000000     -68.94660000
H      -44.49440000     -36.98410000     -69.88740000
C      -46.58090000     -32.74540000     -69.06130000
H      -46.53000000     -33.84520000     -68.91180000
H      -46.68710000     -32.17190000     -68.11380000
C      -45.16320000     -32.39250000     -69.50380000
C      -44.64930000     -31.08940000     -69.57620000
C      -44.15380000     -33.40230000     -69.83650000
H      -45.21210000     -30.26180000     -69.26990000
C      -42.92640000     -32.75370000     -70.11930000
C      -43.99660000     -34.80580000     -70.01940000
C      -42.75510000     -35.25900000     -70.35910000
S      -42.93090000     -31.04880000     -70.02860000
S      -41.62560000     -33.87660000     -70.51420000
H      -42.40600000     -36.22770000     -70.46820000
