40
Properties=species:S:1:pos:R:3 #=T CELL(abcABC):=T 1.889726e+02=T 90.00000=T Traj:=T positionsangstrom=T Step:=T 0=T Bead:=T pbc="F F F"
C      -47.05830000     -34.65620000     -74.36860000
C      -45.85120000     -34.18830000     -73.75340000
C      -45.84110000     -32.95050000     -73.08910000
C      -47.00370000     -32.20500000     -72.96780000
C      -48.15560000     -32.58800000     -73.74810000
C      -48.11560000     -33.81040000     -74.41540000
H      -47.03680000     -35.64490000     -74.83280000
H      -44.84080000     -32.79850000     -72.54370000
H      -48.96180000     -31.98760000     -73.59210000
H      -48.99950000     -34.14930000     -74.93210000
C      -46.99990000     -30.91870000     -72.11990000
H      -47.42910000     -30.12320000     -72.67720000
H      -46.04350000     -30.63500000     -71.83340000
C      -44.66430000     -35.16120000     -73.53850000
H      -44.31410000     -35.49370000     -74.47990000
H      -43.72590000     -34.65960000     -73.09620000
S      -48.01730000     -31.09520000     -70.59140000
S      -45.04530000     -36.71510000     -72.56130000
C      -47.60860000     -32.79890000     -69.89790000
H      -48.56250000     -33.22280000     -69.63680000
H      -47.25280000     -33.60220000     -70.52630000
C      -45.95820000     -36.12960000     -71.07670000
H      -46.72640000     -36.78770000     -70.72190000
H      -46.53440000     -35.14720000     -71.28700000
C      -45.15590000     -35.74420000     -69.84290000
H      -45.85950000     -35.43320000     -69.09180000
H      -44.70440000     -36.66370000     -69.37600000
C      -46.55410000     -32.68090000     -68.77430000
H      -46.51890000     -33.61550000     -68.18680000
H      -46.87980000     -31.95030000     -68.08210000
C      -45.18330000     -32.40030000     -69.33040000
C      -44.82010000     -31.09650000     -69.46530000
C      -44.13700000     -33.31190000     -69.80190000
H      -45.44670000     -30.34940000     -68.99980000
C      -43.01430000     -32.63250000     -70.19680000
C      -43.99240000     -34.73930000     -69.99960000
C      -42.72250000     -35.06550000     -70.40440000
S      -43.19790000     -30.94230000     -70.07970000
S      -41.70460000     -33.71410000     -70.64590000
H      -42.43880000     -36.01850000     -70.77230000
