40
Properties=species:S:1:pos:R:3 #=T CELL(abcABC):=T 1.889726e+02=T 90.00000=T Traj:=T positionsangstrom=T Step:=T 0=T Bead:=T pbc="F F F"
C      -46.61140000     -34.74540000     -74.66420000
C      -45.65460000     -34.48860000     -73.69250000
C      -45.79510000     -33.34140000     -72.78030000
C      -46.85190000     -32.47710000     -72.86510000
C      -47.83340000     -32.66990000     -73.86600000
C      -47.64570000     -33.76420000     -74.75480000
H      -46.57340000     -35.63180000     -75.37280000
H      -45.21310000     -33.20710000     -71.97030000
H      -48.75020000     -32.04750000     -73.90160000
H      -48.33780000     -33.86920000     -75.56280000
C      -47.02500000     -31.20800000     -71.89860000
H      -47.35260000     -30.28160000     -72.43630000
H      -46.08110000     -31.05350000     -71.38620000
C      -44.37220000     -35.32610000     -73.57890000
H      -44.11030000     -35.81920000     -74.49560000
H      -43.51590000     -34.71200000     -73.26450000
S      -48.40580000     -31.53450000     -70.64180000
S      -44.57680000     -36.82440000     -72.50250000
C      -47.76820000     -33.10270000     -69.88060000
H      -48.70070000     -33.43640000     -69.39470000
H      -47.40890000     -33.83830000     -70.63080000
C      -45.61850000     -36.23680000     -71.08280000
H      -46.02900000     -37.16410000     -70.78880000
H      -46.43510000     -35.58520000     -71.54940000
C      -44.88880000     -35.67830000     -69.86480000
H      -45.49210000     -35.48080000     -69.04570000
H      -44.35700000     -36.58920000     -69.55100000
C      -46.68910000     -32.93200000     -68.78430000
H      -46.64480000     -33.85270000     -68.21430000
H      -47.03550000     -32.14130000     -68.08860000
C      -45.35100000     -32.45020000     -69.14030000
C      -45.13640000     -31.07530000     -69.07200000
C      -44.25710000     -33.11440000     -69.76970000
H      -45.64790000     -30.42510000     -68.38900000
C      -43.20490000     -32.23740000     -70.16680000
C      -43.99210000     -34.50270000     -70.19100000
C      -42.76430000     -34.63430000     -70.75130000
S      -43.55850000     -30.61440000     -69.62120000
S      -42.00570000     -33.07940000     -71.08680000
H      -42.48790000     -35.51320000     -71.29560000
