40
Properties=species:S:1:pos:R:3 #=T CELL(abcABC):=T 1.889726e+02=T 90.00000=T Traj:=T positionsangstrom=T Step:=T 0=T Bead:=T pbc="F F F"
C      -43.07280000     -35.81850000     -69.26520000
C      -42.70540000     -35.38960000     -70.55840000
C      -43.43430000     -35.79060000     -71.71010000
C      -44.55880000     -36.65390000     -71.60590000
C      -44.88890000     -37.02090000     -70.29950000
C      -44.16540000     -36.69430000     -69.14840000
H      -42.54740000     -35.59010000     -68.32110000
H      -43.23830000     -35.35310000     -72.68400000
H      -45.76930000     -37.67260000     -70.26430000
H      -44.52220000     -36.99590000     -68.16750000
C      -45.25020000     -37.03100000     -72.89080000
H      -45.41970000     -38.07550000     -73.08570000
H      -44.76460000     -36.54030000     -73.73110000
C      -41.45370000     -34.55960000     -70.69600000
H      -41.31990000     -33.93480000     -69.76360000
H      -40.48920000     -35.06500000     -70.76350000
S      -47.11270000     -36.53280000     -72.83220000
S      -41.41800000     -33.42430000     -72.14520000
C      -47.35830000     -34.76490000     -72.48070000
H      -46.91370000     -34.18560000     -73.28540000
H      -48.39260000     -34.59540000     -72.59750000
C      -42.69000000     -32.13400000     -71.62510000
H      -42.57180000     -31.20760000     -72.23240000
H      -42.28480000     -31.84120000     -70.65300000
C      -44.14640000     -32.49240000     -71.47680000
H      -44.60110000     -33.09440000     -72.29120000
H      -44.24760000     -33.18580000     -70.67170000
C      -47.03800000     -34.13740000     -71.10250000
H      -46.02550000     -34.34450000     -70.84640000
H      -47.66060000     -34.72870000     -70.36590000
C      -47.40760000     -32.66610000     -71.04920000
C      -48.72490000     -32.22100000     -70.80470000
C      -46.51880000     -31.49710000     -71.12440000
H      -49.64170000     -32.72950000     -70.51080000
C      -47.21800000     -30.27230000     -70.96410000
C      -45.07770000     -31.30120000     -71.28540000
C      -44.69640000     -30.02430000     -71.35500000
S      -48.87980000     -30.49500000     -70.48220000
S      -46.09370000     -28.91690000     -71.25640000
H      -43.77410000     -29.61730000     -71.72660000
