40
Properties=species:S:1:pos:R:3 #=T CELL(abcABC):=T 1.889726e+02=T 90.00000=T Traj:=T positionsangstrom=T Step:=T 0=T Bead:=T pbc="F F F"
C      -43.25840000     -35.81780000     -69.16520000
C      -42.67220000     -35.41650000     -70.36260000
C      -43.30120000     -35.73270000     -71.59310000
C      -44.43330000     -36.52680000     -71.60850000
C      -44.97700000     -36.99260000     -70.45290000
C      -44.38790000     -36.63460000     -69.18150000
H      -42.85060000     -35.51460000     -68.20250000
H      -42.88760000     -35.37030000     -72.55150000
H      -45.88430000     -37.57710000     -70.45560000
H      -44.73440000     -37.05930000     -68.26590000
C      -45.20970000     -36.66510000     -72.94760000
H      -45.25450000     -37.60450000     -73.55350000
H      -44.83060000     -35.88190000     -73.59540000
C      -41.48370000     -34.41880000     -70.45370000
H      -41.46170000     -33.88460000     -69.54780000
H      -40.57720000     -35.03480000     -70.49940000
S      -47.09060000     -36.49230000     -72.70190000
S      -41.45960000     -33.33750000     -72.00280000
C      -47.30050000     -34.64820000     -72.63150000
H      -46.49900000     -34.19300000     -73.32950000
H      -48.29220000     -34.39910000     -72.98220000
C      -42.65710000     -31.94420000     -71.59510000
H      -42.74520000     -31.29820000     -72.48340000
H      -42.26450000     -31.45990000     -70.70900000
C      -44.01750000     -32.48580000     -71.34520000
H      -44.16650000     -33.05250000     -72.26130000
H      -44.20770000     -33.19550000     -70.49930000
C      -47.05710000     -34.23890000     -71.25850000
H      -46.01220000     -34.52290000     -71.05140000
H      -47.73920000     -34.71980000     -70.52540000
C      -47.32220000     -32.77670000     -71.07590000
C      -48.62600000     -32.42620000     -70.70530000
C      -46.45920000     -31.64830000     -71.13310000
H      -49.54090000     -32.99610000     -70.57680000
C      -47.21790000     -30.45230000     -71.06230000
C      -45.05550000     -31.35930000     -71.41190000
C      -44.74930000     -30.04580000     -71.44010000
S      -48.90590000     -30.62770000     -70.81540000
S      -46.14680000     -29.04530000     -71.18310000
H      -43.71390000     -29.57610000     -71.49530000
