40
Properties=species:S:1:pos:R:3 #=T CELL(abcABC):=T 1.889726e+02=T 90.00000=T Traj:=T positionsangstrom=T Step:=T 0=T Bead:=T pbc="F F F"
C      -43.37480000     -35.70920000     -69.16970000
C      -42.78430000     -35.19480000     -70.32930000
C      -43.29670000     -35.66890000     -71.52780000
C      -44.48390000     -36.44330000     -71.54600000
C      -44.98680000     -37.01550000     -70.34810000
C      -44.39440000     -36.66410000     -69.15560000
H      -42.99380000     -35.27060000     -68.19310000
H      -42.88340000     -35.36290000     -72.49810000
H      -45.79790000     -37.69360000     -70.39730000
H      -44.81310000     -37.03380000     -68.19490000
C      -45.08760000     -36.78140000     -72.87530000
H      -44.81440000     -37.87010000     -73.04910000
H      -44.62910000     -36.17000000     -73.70630000
C      -41.50860000     -34.33870000     -70.24130000
H      -41.30690000     -33.84420000     -69.24280000
H      -40.64010000     -35.02970000     -70.36430000
S      -46.93320000     -36.59320000     -72.87020000
S      -41.30240000     -33.05890000     -71.52940000
C      -47.25410000     -34.73010000     -72.94360000
H      -46.44430000     -34.18270000     -73.57260000
H      -48.22560000     -34.57990000     -73.32380000
C      -42.60760000     -31.76840000     -71.23100000
H      -42.38520000     -31.00440000     -72.07400000
H      -42.53170000     -31.36210000     -70.22880000
C      -43.99590000     -32.40020000     -71.36030000
H      -44.10940000     -32.91810000     -72.33060000
H      -44.22300000     -33.24140000     -70.70680000
C      -46.99460000     -34.28250000     -71.44340000
H      -45.99510000     -34.49750000     -71.20720000
H      -47.58090000     -34.87750000     -70.67610000
C      -47.36910000     -32.86180000     -71.24370000
C      -48.66850000     -32.52590000     -71.16460000
C      -46.52410000     -31.71450000     -71.27690000
H      -49.43950000     -33.32320000     -71.09370000
C      -47.26570000     -30.56420000     -71.17660000
C      -45.11220000     -31.36230000     -71.30050000
C      -44.82390000     -30.03380000     -71.31450000
S      -48.96510000     -30.81330000     -71.14410000
S      -46.30190000     -29.08790000     -71.08710000
H      -43.90160000     -29.51080000     -71.35640000
