40
Properties=species:S:1:pos:R:3 #=T CELL(abcABC):=T 1.889726e+02=T 90.00000=T Traj:=T positionsangstrom=T Step:=T 0=T Bead:=T pbc="F F F"
C      -43.06070000     -32.06430000     -70.69940000
C      -42.82720000     -33.39190000     -71.13150000
C      -43.15860000     -33.81040000     -72.43170000
C      -43.77450000     -32.83270000     -73.25520000
C      -44.15350000     -31.58960000     -72.81240000
C      -43.73350000     -31.16610000     -71.54880000
H      -42.80390000     -31.66450000     -69.74220000
H      -43.01290000     -34.81180000     -72.82630000
H      -44.64260000     -30.84220000     -73.46140000
H      -43.88660000     -30.18860000     -71.27860000
C      -44.16170000     -33.20260000     -74.68360000
H      -43.25470000     -33.41490000     -75.17700000
H      -44.68300000     -32.38320000     -75.22330000
C      -42.08060000     -34.29570000     -70.17360000
H      -41.76530000     -35.17080000     -70.68030000
H      -41.27340000     -33.83700000     -69.61060000
S      -45.08790000     -34.73280000     -74.96230000
S      -43.33870000     -34.82490000     -68.92570000
C      -46.72930000     -34.87920000     -74.09420000
H      -47.32780000     -34.06340000     -74.54790000
H      -47.11400000     -35.77590000     -74.54620000
C      -44.42100000     -35.84550000     -69.92130000
H      -44.12610000     -36.86680000     -69.90620000
H      -44.21960000     -35.52820000     -70.92700000
C      -45.83980000     -35.58910000     -69.54430000
H      -46.59280000     -36.17880000     -70.12850000
H      -46.00210000     -36.02090000     -68.52680000
C      -46.77460000     -34.95200000     -72.58850000
H      -45.84880000     -35.47800000     -72.31810000
H      -47.58060000     -35.64560000     -72.29300000
C      -47.00360000     -33.61980000     -71.94380000
C      -47.62090000     -32.55600000     -72.58230000
C      -46.65530000     -33.36500000     -70.53740000
H      -47.85080000     -32.40710000     -73.65730000
C      -46.88970000     -32.02570000     -70.27380000
C      -46.19920000     -34.12460000     -69.45650000
C      -46.16190000     -33.33640000     -68.35970000
S      -47.94150000     -31.18120000     -71.47410000
S      -46.71420000     -31.71460000     -68.55850000
H      -45.60760000     -33.56390000     -67.44690000
