40
Properties=species:S:1:pos:R:3 #=T CELL(abcABC):=T 1.889726e+02=T 90.00000=T Traj:=T positionsangstrom=T Step:=T 0=T Bead:=T pbc="F F F"
C      -43.23570000     -35.59190000     -69.06520000
C      -42.63060000     -35.13620000     -70.27110000
C      -42.99150000     -35.70430000     -71.49930000
C      -44.08150000     -36.65710000     -71.56380000
C      -44.81970000     -36.93370000     -70.37530000
C      -44.32260000     -36.39530000     -69.18040000
H      -42.83060000     -35.28990000     -68.07020000
H      -42.52740000     -35.47230000     -72.46450000
H      -45.68190000     -37.53140000     -70.24140000
H      -44.85860000     -36.71930000     -68.19600000
C      -44.55410000     -37.08670000     -73.00360000
H      -44.70780000     -38.20410000     -72.92740000
H      -43.75960000     -36.69130000     -73.65460000
C      -41.42100000     -34.11850000     -70.08520000
H      -41.44720000     -33.90340000     -69.00210000
H      -40.39990000     -34.69140000     -70.25280000
S      -46.22010000     -36.43360000     -73.47330000
S      -41.45720000     -32.67170000     -71.23740000
C      -46.21850000     -34.65820000     -73.10230000
H      -45.14540000     -34.32000000     -73.16060000
H      -46.82900000     -34.22860000     -73.86550000
C      -42.93550000     -31.71640000     -70.82690000
H      -42.87910000     -30.63400000     -71.27860000
H      -42.95350000     -31.48050000     -69.80320000
C      -44.23190000     -32.38190000     -71.15590000
H      -44.27170000     -32.86000000     -72.15300000
H      -44.35480000     -33.19640000     -70.44140000
C      -46.89680000     -34.32910000     -71.78590000
H      -46.18260000     -34.39020000     -70.96840000
H      -47.68360000     -35.09470000     -71.56770000
C      -47.48570000     -32.90830000     -71.67460000
C      -48.84920000     -32.69070000     -71.84250000
C      -46.80270000     -31.75370000     -71.31650000
H      -49.64080000     -33.39850000     -72.05960000
C      -47.65920000     -30.65890000     -71.24500000
C      -45.42480000     -31.42050000     -70.96500000
C      -45.29270000     -30.13860000     -70.51290000
S      -49.28760000     -31.04640000     -71.57550000
S      -46.86100000     -29.32000000     -70.47010000
H      -44.36770000     -29.63810000     -70.22720000
