40
Properties=species:S:1:pos:R:3 #=T CELL(abcABC):=T 1.889726e+02=T 90.00000=T Traj:=T positionsangstrom=T Step:=T 0=T Bead:=T pbc="F F F"
C      -44.89090000     -35.35760000     -68.20160000
C      -43.63900000     -35.25820000     -68.82430000
C      -43.00100000     -33.93510000     -69.03870000
C      -43.67000000     -32.76370000     -68.60280000
C      -44.88950000     -32.93110000     -67.84060000
C      -45.43950000     -34.19410000     -67.73100000
H      -45.43880000     -36.27510000     -68.12210000
H      -42.11580000     -33.87610000     -69.56870000
H      -45.40570000     -32.01280000     -67.51830000
H      -46.30890000     -34.24470000     -67.07290000
C      -43.03200000     -31.39670000     -68.77570000
H      -42.16360000     -31.52390000     -69.40640000
H      -42.67850000     -31.13720000     -67.82670000
C      -42.85150000     -36.42120000     -69.39710000
H      -41.85830000     -36.45680000     -68.96440000
H      -43.33730000     -37.29640000     -69.15790000
S      -43.99240000     -30.10930000     -69.69870000
S      -42.68830000     -36.10410000     -71.12680000
C      -44.85070000     -30.94730000     -71.17240000
H      -45.01800000     -30.09720000     -71.88240000
H      -44.02660000     -31.59120000     -71.60350000
C      -44.40470000     -35.88360000     -71.71090000
H      -45.03770000     -36.20350000     -70.85060000
H      -44.59360000     -36.50820000     -72.63150000
C      -44.51170000     -34.36130000     -72.18310000
H      -44.59880000     -33.74820000     -71.28520000
H      -43.70480000     -34.07450000     -72.83640000
C      -46.22530000     -31.51740000     -70.76300000
H      -46.86630000     -30.62950000     -70.31170000
H      -46.05220000     -32.26910000     -70.00310000
C      -46.93550000     -31.95880000     -71.99800000
C      -47.98020000     -31.18040000     -72.46030000
C      -46.73070000     -33.09010000     -72.85900000
H      -48.53180000     -30.34620000     -71.91710000
C      -47.59680000     -33.12830000     -73.99010000
C      -45.69810000     -34.10870000     -72.99650000
C      -45.95520000     -34.87760000     -74.12140000
S      -48.75470000     -31.83550000     -73.89290000
S      -47.38720000     -34.46200000     -75.05500000
H      -45.52960000     -35.80820000     -74.47790000
