40
Properties=species:S:1:pos:R:3 #=T CELL(abcABC):=T 1.889726e+02=T 90.00000=T Traj:=T positionsangstrom=T Step:=T 0=T Bead:=T pbc="F F F"
C      -43.59570000     -35.62020000     -69.17910000
C      -42.72900000     -34.94670000     -70.11370000
C      -42.88370000     -35.24720000     -71.45800000
C      -43.72810000     -36.33510000     -71.86360000
C      -44.55720000     -36.98290000     -70.95120000
C      -44.49470000     -36.60110000     -69.59370000
H      -43.62360000     -35.18160000     -68.17110000
H      -42.50440000     -34.63530000     -72.31730000
H      -45.26160000     -37.75950000     -71.24620000
H      -45.23050000     -36.99300000     -68.81260000
C      -43.94130000     -36.67310000     -73.35550000
H      -43.91820000     -37.76780000     -73.51390000
H      -43.22180000     -36.20570000     -74.01300000
C      -41.75680000     -33.83950000     -69.63230000
H      -42.17240000     -33.58300000     -68.63530000
H      -40.76650000     -34.35340000     -69.44060000
S      -45.69530000     -36.40020000     -73.83640000
S      -41.62580000     -32.41980000     -70.80790000
C      -45.94980000     -34.61360000     -73.40320000
H      -44.96350000     -34.19130000     -73.50120000
H      -46.56950000     -34.12840000     -74.19060000
C      -43.08750000     -31.56030000     -70.15960000
H      -43.11760000     -30.60280000     -70.58100000
H      -42.93520000     -31.45530000     -69.07960000
C      -44.37610000     -32.31650000     -70.46280000
H      -44.26620000     -32.73870000     -71.46910000
H      -44.49610000     -33.08250000     -69.74810000
C      -46.55730000     -34.50550000     -71.95040000
H      -45.67530000     -34.63910000     -71.31350000
H      -47.17230000     -35.34350000     -71.73940000
C      -47.31750000     -33.19510000     -71.78030000
C      -48.65030000     -33.04710000     -72.10060000
C      -46.87320000     -31.92350000     -71.17750000
H      -49.33280000     -33.75290000     -72.51590000
C      -47.85970000     -30.85120000     -71.21100000
C      -45.66430000     -31.47250000     -70.55110000
C      -45.71810000     -30.18490000     -70.10220000
S      -49.34430000     -31.45210000     -71.75500000
S      -47.21660000     -29.38510000     -70.52610000
H      -44.86650000     -29.76450000     -69.73650000
