40
Properties=species:S:1:pos:R:3 #=T CELL(abcABC):=T 1.889726e+02=T 90.00000=T Traj:=T positionsangstrom=T Step:=T 0=T Bead:=T pbc="F F F"
C      -43.52770000     -35.76230000     -69.08510000
C      -42.71940000     -35.04930000     -69.98310000
C      -42.88150000     -35.34030000     -71.36630000
C      -43.69410000     -36.38530000     -71.78910000
C      -44.45930000     -37.13690000     -70.88690000
C      -44.36500000     -36.87280000     -69.51990000
H      -43.58770000     -35.62540000     -68.03660000
H      -42.21520000     -34.80020000     -72.08180000
H      -45.19610000     -37.94050000     -71.28260000
H      -44.93330000     -37.55590000     -68.82470000
C      -43.90050000     -36.51450000     -73.32600000
H      -43.74390000     -37.53560000     -73.67360000
H      -43.14130000     -35.84780000     -73.83670000
C      -41.71460000     -34.07900000     -69.51970000
H      -42.03060000     -33.65750000     -68.54760000
H      -40.77800000     -34.49950000     -69.29560000
S      -45.66810000     -36.27260000     -73.85620000
S      -41.56630000     -32.44460000     -70.59650000
C      -46.05740000     -34.62260000     -73.34850000
H      -45.17220000     -33.97930000     -73.45930000
H      -46.80040000     -34.34890000     -74.13380000
C      -43.18550000     -31.53250000     -70.40100000
H      -43.11760000     -30.64770000     -70.99760000
H      -43.23710000     -31.19810000     -69.31330000
C      -44.43780000     -32.29620000     -70.63300000
H      -44.37930000     -32.69110000     -71.65380000
H      -44.55230000     -33.20430000     -69.91340000
C      -46.59980000     -34.45820000     -71.93040000
H      -45.83610000     -34.48390000     -71.13140000
H      -47.34280000     -35.25860000     -71.80950000
C      -47.36430000     -33.12590000     -71.75400000
C      -48.65790000     -33.02300000     -72.20960000
C      -46.84300000     -31.89330000     -71.26240000
H      -49.31590000     -33.82810000     -72.46480000
C      -47.80700000     -30.83880000     -71.32410000
C      -45.64860000     -31.38990000     -70.64670000
C      -45.72040000     -30.08820000     -70.24440000
S      -49.36890000     -31.38310000     -71.90570000
S      -47.32890000     -29.35620000     -70.49260000
H      -44.98150000     -29.58750000     -69.73340000
