40
Properties=species:S:1:pos:R:3 #=T CELL(abcABC):=T 1.889726e+02=T 90.00000=T Traj:=T positionsangstrom=T Step:=T 0=T Bead:=T pbc="F F F"
C      -49.30360000     -32.23310000     -70.31130000
C      -48.65780000     -31.63790000     -71.42480000
C      -48.17270000     -32.55840000     -72.39640000
C      -48.27910000     -33.96060000     -72.27010000
C      -48.89150000     -34.43880000     -71.12560000
C      -49.47680000     -33.60940000     -70.16860000
H      -49.65140000     -31.63300000     -69.46000000
H      -47.79050000     -32.08030000     -73.33120000
H      -49.12420000     -35.51580000     -71.07090000
H      -50.05000000     -33.95350000     -69.28690000
C      -47.81110000     -34.89860000     -73.35920000
H      -47.01140000     -34.43380000     -74.02240000
H      -48.63840000     -35.04180000     -74.12100000
C      -48.51140000     -30.16600000     -71.46100000
H      -49.01010000     -29.78830000     -72.34400000
H      -48.86640000     -29.68110000     -70.58380000
S      -47.23310000     -36.67950000     -72.95040000
S      -46.66440000     -29.75950000     -71.61630000
C      -45.55900000     -36.38340000     -72.08980000
H      -45.62510000     -36.59910000     -71.01840000
H      -44.91060000     -37.23570000     -72.38680000
C      -45.63660000     -31.13060000     -70.85670000
H      -46.26160000     -32.04340000     -70.67990000
H      -45.21250000     -30.83080000     -69.91170000
C      -44.50670000     -31.42410000     -71.80640000
H      -44.79520000     -32.07660000     -72.66430000
H      -44.13440000     -30.46340000     -72.13780000
C      -44.84890000     -34.97780000     -72.35020000
H      -45.50380000     -34.21250000     -72.12460000
H      -44.70770000     -34.86310000     -73.47310000
C      -43.51890000     -34.86330000     -71.57810000
C      -42.84630000     -35.90030000     -70.96670000
C      -42.90980000     -33.57050000     -71.22460000
H      -43.01320000     -36.92030000     -71.29050000
C      -41.82810000     -33.79900000     -70.40770000
C      -43.28170000     -32.16560000     -71.12520000
C      -42.48000000     -31.41110000     -70.37310000
S      -41.39030000     -35.47410000     -70.12270000
S      -41.15070000     -32.36630000     -69.57580000
H      -42.64030000     -30.30410000     -70.27720000
