40
Properties=species:S:1:pos:R:3 #=T CELL(abcABC):=T 1.889726e+02=T 90.00000=T Traj:=T positionsangstrom=T Step:=T 0=T Bead:=T pbc="F F F"
C      -43.11100000     -36.10140000     -69.02000000
C      -42.69900000     -35.11440000     -69.86970000
C      -42.95970000     -35.28090000     -71.26120000
C      -43.80020000     -36.30150000     -71.74060000
C      -44.34850000     -37.17410000     -70.81320000
C      -43.98480000     -37.08590000     -69.48340000
H      -42.87380000     -36.02210000     -68.00660000
H      -42.61930000     -34.51100000     -72.00270000
H      -45.04440000     -37.93660000     -71.17230000
H      -44.46260000     -37.75120000     -68.71240000
C      -43.92730000     -36.31430000     -73.26530000
H      -43.64860000     -37.34430000     -73.65510000
H      -43.34620000     -35.47460000     -73.77360000
C      -41.88530000     -33.94920000     -69.36540000
H      -42.29510000     -33.56580000     -68.38320000
H      -40.89540000     -34.24240000     -68.99650000
S      -45.61150000     -36.23750000     -74.01890000
S      -41.64790000     -32.50750000     -70.49180000
C      -46.03740000     -34.49870000     -73.53600000
H      -45.08660000     -33.94310000     -73.42790000
H      -46.69150000     -34.01750000     -74.29770000
C      -43.24430000     -31.73940000     -70.20450000
H      -43.10630000     -30.81860000     -70.60220000
H      -43.51800000     -31.56940000     -69.10080000
C      -44.42170000     -32.34460000     -71.03330000
H      -44.16330000     -32.34130000     -72.03200000
H      -44.63300000     -33.33600000     -70.53890000
C      -46.89610000     -34.44690000     -72.22050000
H      -46.21040000     -34.65060000     -71.41030000
H      -47.72700000     -35.14100000     -72.27380000
C      -47.53570000     -33.07800000     -71.92640000
C      -48.82730000     -32.85330000     -72.25210000
C      -46.89410000     -31.84170000     -71.42160000
H      -49.45690000     -33.52610000     -72.72660000
C      -47.85870000     -30.84030000     -71.11740000
C      -45.63180000     -31.48010000     -70.86120000
C      -45.63800000     -30.19230000     -70.29860000
S      -49.48870000     -31.27930000     -71.65920000
S      -47.13140000     -29.37080000     -70.48680000
H      -44.86460000     -29.73550000     -69.77930000
