40
Properties=species:S:1:pos:R:3 #=T CELL(abcABC):=T 1.889726e+02=T 90.00000=T Traj:=T positionsangstrom=T Step:=T 0=T Bead:=T pbc="F F F"
C      -48.95400000     -33.88000000     -73.10870000
C      -48.58290000     -34.35320000     -71.84290000
C      -48.51040000     -33.41220000     -70.78830000
C      -48.54860000     -32.04720000     -70.98130000
C      -48.51390000     -31.59670000     -72.30100000
C      -48.89710000     -32.45790000     -73.31950000
H      -49.12880000     -34.64110000     -73.90330000
H      -48.50310000     -33.80360000     -69.79810000
H      -48.43400000     -30.49660000     -72.51370000
H      -48.98170000     -32.09330000     -74.31850000
C      -48.41550000     -31.03090000     -69.82610000
H      -49.28360000     -31.19940000     -69.18660000
H      -48.38180000     -29.94130000     -70.04180000
C      -48.74440000     -35.86830000     -71.53650000
H      -49.63720000     -35.86110000     -70.83200000
H      -49.11430000     -36.44760000     -72.45690000
S      -46.93440000     -31.54800000     -68.87200000
S      -47.21480000     -36.45850000     -70.65890000
C      -45.57200000     -31.53480000     -70.22940000
H      -45.84460000     -32.11990000     -71.02370000
H      -45.56950000     -30.47640000     -70.64190000
C      -45.78180000     -35.98240000     -71.85640000
H      -46.34540000     -35.67600000     -72.77250000
H      -45.13870000     -36.80860000     -72.20950000
C      -45.04050000     -34.73570000     -71.34100000
H      -45.60420000     -33.82920000     -71.49870000
H      -44.93870000     -34.82740000     -70.24790000
C      -44.21430000     -31.83890000     -69.49000000
H      -44.45220000     -32.72770000     -68.81920000
H      -43.92990000     -30.98880000     -68.87290000
C      -43.10080000     -32.27540000     -70.40950000
C      -41.96350000     -31.48930000     -70.34810000
C      -42.94170000     -33.35020000     -71.39360000
H      -41.62860000     -30.68530000     -69.68780000
C      -41.76170000     -33.21210000     -72.11180000
C      -43.66220000     -34.53860000     -71.86550000
C      -42.99070000     -35.25810000     -72.79620000
S      -40.83480000     -31.89330000     -71.61880000
S      -41.53790000     -34.44320000     -73.27810000
H      -43.23780000     -36.20460000     -73.20610000
