40
Properties=species:S:1:pos:R:3 #=T CELL(abcABC):=T 1.889726e+02=T 90.00000=T Traj:=T positionsangstrom=T Step:=T 0=T Bead:=T pbc="F F F"
C      -48.66850000     -33.42210000     -73.15930000
C      -48.40950000     -34.11630000     -71.99320000
C      -48.21560000     -33.40250000     -70.79490000
C      -48.35340000     -32.02990000     -70.73130000
C      -48.41790000     -31.32790000     -71.93990000
C      -48.52850000     -32.07090000     -73.11830000
H      -48.92140000     -33.93320000     -74.05480000
H      -48.11420000     -33.87620000     -69.83760000
H      -48.36770000     -30.23630000     -71.98770000
H      -48.62560000     -31.54250000     -74.08420000
C      -48.47660000     -31.29370000     -69.31730000
H      -48.98420000     -31.84960000     -68.53940000
H      -48.95890000     -30.33560000     -69.46470000
C      -48.54350000     -35.70790000     -72.09810000
H      -49.62500000     -36.03240000     -71.99530000
H      -48.31110000     -35.98080000     -73.18790000
S      -46.70910000     -31.07590000     -68.59650000
S      -47.40580000     -36.75550000     -71.05700000
C      -45.37480000     -31.14070000     -69.92950000
H      -45.69090000     -31.62810000     -70.92180000
H      -45.12500000     -30.13510000     -70.19390000
C      -45.78340000     -36.30880000     -71.83250000
H      -45.81620000     -36.25210000     -72.93770000
H      -45.08110000     -37.13760000     -71.61980000
C      -45.20490000     -34.92310000     -71.28360000
H      -45.82310000     -34.06780000     -71.60410000
H      -45.26520000     -34.89450000     -70.20030000
C      -44.23020000     -32.02890000     -69.32760000
H      -44.68600000     -32.92500000     -68.91940000
H      -43.72950000     -31.51570000     -68.45070000
C      -43.15060000     -32.41940000     -70.35840000
C      -42.00650000     -31.63100000     -70.35390000
C      -43.04920000     -33.53560000     -71.37100000
H      -41.74600000     -30.85190000     -69.64770000
C      -41.92920000     -33.37120000     -72.18320000
C      -43.88170000     -34.59020000     -71.89370000
C      -43.35460000     -35.28890000     -72.97060000
S      -40.89480000     -32.04590000     -71.65020000
S      -41.79380000     -34.54370000     -73.48220000
H      -43.68030000     -36.16820000     -73.58460000
