40
Properties=species:S:1:pos:R:3 #=T CELL(abcABC):=T 1.889726e+02=T 90.00000=T Traj:=T positionsangstrom=T Step:=T 0=T Bead:=T pbc="F F F"
C      -44.76280000     -35.27710000     -67.96080000
C      -43.59400000     -35.20360000     -68.75570000
C      -43.01210000     -33.93950000     -68.96010000
C      -43.69760000     -32.71470000     -68.49290000
C      -44.97900000     -32.84170000     -67.85050000
C      -45.43320000     -34.15370000     -67.60490000
H      -45.16400000     -36.21090000     -67.58930000
H      -42.05770000     -33.84200000     -69.46170000
H      -45.59090000     -31.98950000     -67.57470000
H      -46.39690000     -34.21240000     -67.13040000
C      -43.02150000     -31.40210000     -68.64650000
H      -42.04640000     -31.46790000     -69.17120000
H      -42.86910000     -30.92470000     -67.62230000
C      -42.93690000     -36.41930000     -69.33270000
H      -41.87950000     -36.72870000     -69.03150000
H      -43.70580000     -37.26120000     -69.21190000
S      -43.98770000     -30.12610000     -69.64700000
S      -42.66480000     -36.28930000     -71.21600000
C      -44.73220000     -30.95100000     -71.13160000
H      -44.85170000     -30.21630000     -71.88690000
H      -44.03080000     -31.72150000     -71.45450000
C      -44.36260000     -35.79490000     -71.83580000
H      -45.06070000     -36.17590000     -71.04540000
H      -44.50910000     -36.36630000     -72.71460000
C      -44.47420000     -34.28210000     -72.25970000
H      -44.61400000     -33.63220000     -71.32240000
H      -43.52270000     -34.02590000     -72.75240000
C      -46.06210000     -31.73370000     -70.80640000
H      -46.57070000     -31.04270000     -70.17120000
H      -45.89670000     -32.63600000     -70.25560000
C      -46.95460000     -32.04400000     -72.03630000
C      -48.04670000     -31.19270000     -72.40790000
C      -46.70290000     -33.04500000     -73.01730000
H      -48.38850000     -30.28380000     -71.92340000
C      -47.64420000     -33.08580000     -74.03760000
C      -45.73080000     -34.12860000     -73.07950000
C      -45.97480000     -34.87890000     -74.21610000
S      -48.81300000     -31.78220000     -73.85820000
S      -47.44730000     -34.38780000     -75.15360000
H      -45.38830000     -35.64360000     -74.68000000
