40
Properties=species:S:1:pos:R:3 #=T CELL(abcABC):=T 1.889726e+02=T 90.00000=T Traj:=T positionsangstrom=T Step:=T 0=T Bead:=T pbc="F F F"
C      -49.72090000     -33.20260000     -70.33620000
C      -48.66540000     -32.36970000     -70.76080000
C      -48.03040000     -32.63030000     -72.00090000
C      -48.33190000     -33.77850000     -72.73850000
C      -49.41490000     -34.55360000     -72.30730000
C      -50.16560000     -34.28960000     -71.14060000
H      -50.15750000     -33.21880000     -69.35170000
H      -47.18110000     -32.04050000     -72.39160000
H      -49.65980000     -35.44640000     -72.86360000
H      -50.94440000     -34.94440000     -70.73310000
C      -47.57460000     -34.23360000     -74.03630000
H      -46.90160000     -33.37790000     -74.42010000
H      -48.26240000     -34.55510000     -74.87920000
C      -48.17530000     -31.11620000     -69.94720000
H      -49.00420000     -30.55170000     -69.59230000
H      -47.62530000     -31.54060000     -69.13980000
S      -46.62970000     -35.77870000     -73.66590000
S      -47.09150000     -29.90340000     -70.89440000
C      -45.47980000     -35.31570000     -72.28110000
H      -46.06870000     -34.69030000     -71.58390000
H      -45.19520000     -36.22240000     -71.67430000
C      -45.32810000     -30.58360000     -70.62520000
H      -45.05930000     -30.39840000     -69.59320000
H      -44.66560000     -29.99690000     -71.23090000
C      -45.10020000     -32.09740000     -70.89550000
H      -45.82450000     -32.65350000     -70.24490000
H      -45.33520000     -32.27970000     -71.88180000
C      -44.33860000     -34.46570000     -73.00020000
H      -44.68570000     -33.49010000     -73.30770000
H      -44.19250000     -34.96650000     -74.04670000
C      -43.11190000     -34.45700000     -72.09760000
C      -42.04030000     -35.30980000     -72.29270000
C      -42.94440000     -33.55720000     -71.01970000
H      -41.73960000     -35.82450000     -73.16820000
C      -41.77030000     -33.81490000     -70.27290000
C      -43.72840000     -32.56390000     -70.37590000
C      -43.24150000     -32.25290000     -69.09340000
S      -40.82340000     -35.04200000     -71.02630000
S      -41.67630000     -33.00460000     -68.76330000
H      -43.71030000     -31.55290000     -68.26340000
