40
Properties=species:S:1:pos:R:3 #=T CELL(abcABC):=T 1.889726e+02=T 90.00000=T Traj:=T positionsangstrom=T Step:=T 0=T Bead:=T pbc="F F F"
C      -42.55950000     -35.88630000     -69.24140000
C      -42.55800000     -34.65500000     -69.91970000
C      -42.66740000     -34.64090000     -71.29280000
C      -42.98830000     -35.80420000     -72.01280000
C      -43.27570000     -36.95470000     -71.24740000
C      -43.04720000     -37.02830000     -69.88390000
H      -42.28620000     -35.90580000     -68.18620000
H      -42.66340000     -33.62690000     -71.74820000
H      -43.66130000     -37.82460000     -71.81630000
H      -43.25040000     -38.01970000     -69.45370000
C      -43.27640000     -35.79910000     -73.45390000
H      -42.65890000     -36.53980000     -73.98330000
H      -43.06190000     -34.83750000     -73.94830000
C      -42.17030000     -33.34770000     -69.08720000
H      -43.00060000     -33.20290000     -68.39250000
H      -41.31540000     -33.58770000     -68.45520000
S      -45.04760000     -36.15990000     -73.79740000
S      -41.93210000     -31.85200000     -70.10770000
C      -46.11790000     -34.70680000     -73.24020000
H      -45.56900000     -33.78610000     -73.44190000
H      -46.92190000     -34.70550000     -73.99390000
C      -43.56990000     -31.15910000     -70.22930000
H      -43.35790000     -30.16380000     -70.77100000
H      -43.90290000     -30.83750000     -69.23300000
C      -44.57860000     -32.02270000     -70.93170000
H      -44.39190000     -32.15590000     -72.01500000
H      -44.71500000     -33.06870000     -70.49860000
C      -46.63520000     -34.75410000     -71.82020000
H      -45.82830000     -34.74760000     -71.02530000
H      -47.14610000     -35.70250000     -71.50810000
C      -47.55900000     -33.54830000     -71.65370000
C      -48.84460000     -33.69290000     -72.03650000
C      -47.22500000     -32.22050000     -71.20390000
H      -49.21850000     -34.65430000     -72.23500000
C      -48.34380000     -31.37330000     -71.22390000
C      -45.98840000     -31.44580000     -70.97980000
C      -46.25960000     -30.15560000     -70.60430000
S      -49.76920000     -32.22250000     -71.89070000
S      -47.95760000     -29.80200000     -70.71800000
H      -45.64400000     -29.33430000     -70.29400000
