40
Properties=species:S:1:pos:R:3 #=T CELL(abcABC):=T 1.889726e+02=T 90.00000=T Traj:=T positionsangstrom=T Step:=T 0=T Bead:=T pbc="F F F"
C      -42.49220000     -35.71190000     -69.15730000
C      -42.43240000     -34.50800000     -69.84670000
C      -42.57370000     -34.58790000     -71.20710000
C      -42.99720000     -35.78130000     -71.93360000
C      -43.08160000     -36.97250000     -71.17940000
C      -42.82970000     -36.91590000     -69.81710000
H      -42.43110000     -35.57800000     -68.05370000
H      -42.33330000     -33.78400000     -71.84350000
H      -43.45020000     -37.82270000     -71.69520000
H      -42.88310000     -37.77590000     -69.16020000
C      -43.27310000     -35.78420000     -73.43740000
H      -42.53240000     -36.36990000     -73.97820000
H      -43.09360000     -34.72630000     -73.82050000
C      -42.02190000     -33.24660000     -69.11280000
H      -42.61760000     -33.03000000     -68.18910000
H      -40.97270000     -33.30280000     -68.83770000
S      -45.02920000     -36.26750000     -74.01860000
S      -41.94050000     -31.65450000     -70.10710000
C      -45.98360000     -34.75680000     -73.51420000
H      -45.43280000     -33.85990000     -73.85480000
H      -46.87630000     -34.78940000     -74.15330000
C      -43.71780000     -31.07340000     -70.23850000
H      -43.76350000     -30.08400000     -70.67670000
H      -44.08350000     -30.87100000     -69.23230000
C      -44.72720000     -32.02330000     -70.94090000
H      -44.38170000     -32.26350000     -71.95340000
H      -44.71030000     -32.89120000     -70.35140000
C      -46.47510000     -34.69010000     -72.04890000
H      -45.61060000     -34.54720000     -71.41590000
H      -46.86820000     -35.69260000     -71.85300000
C      -47.49820000     -33.58650000     -71.75050000
C      -48.85700000     -33.86020000     -71.90860000
C      -47.19380000     -32.24390000     -71.31440000
H      -49.11270000     -34.68810000     -72.47040000
C      -48.42980000     -31.52620000     -71.21220000
C      -46.08040000     -31.42500000     -70.94540000
C      -46.40440000     -30.14780000     -70.57160000
S      -49.85830000     -32.41120000     -71.62730000
S      -48.15570000     -29.87690000     -70.70580000
H      -45.72120000     -29.31720000     -70.33200000
