40
Properties=species:S:1:pos:R:3 #=T CELL(abcABC):=T 1.889726e+02=T 90.00000=T Traj:=T positionsangstrom=T Step:=T 0=T Bead:=T pbc="F F F"
C      -42.93670000     -35.20920000     -69.18500000
C      -42.34030000     -34.20510000     -69.93460000
C      -42.33880000     -34.41010000     -71.35810000
C      -42.81640000     -35.53170000     -71.96200000
C      -43.42970000     -36.49830000     -71.21090000
C      -43.54340000     -36.36440000     -69.85020000
H      -43.08930000     -35.00920000     -68.10340000
H      -41.90130000     -33.67120000     -71.95630000
H      -43.88840000     -37.30020000     -71.65880000
H      -43.97220000     -37.18950000     -69.28270000
C      -42.75640000     -35.71370000     -73.48290000
H      -42.28010000     -36.65600000     -73.69240000
H      -42.15660000     -34.85590000     -73.98580000
C      -41.78180000     -32.91270000     -69.35680000
H      -42.14410000     -32.69360000     -68.35580000
H      -40.68990000     -32.98520000     -69.24330000
S      -44.50170000     -35.78170000     -74.19530000
S      -42.10650000     -31.40100000     -70.42040000
C      -45.36170000     -34.31380000     -73.51200000
H      -44.67220000     -33.53380000     -73.17170000
H      -45.96510000     -33.96990000     -74.30550000
C      -43.88850000     -31.02790000     -70.10460000
H      -44.10930000     -30.14840000     -70.64080000
H      -44.03400000     -30.87200000     -69.04020000
C      -44.77810000     -32.09430000     -70.63870000
H      -44.54390000     -32.26490000     -71.74710000
H      -44.66900000     -33.02640000     -70.12050000
C      -46.21700000     -34.78280000     -72.26730000
H      -45.61420000     -35.06940000     -71.40910000
H      -46.68020000     -35.67940000     -72.66280000
C      -47.36640000     -33.86420000     -71.90190000
C      -48.68470000     -34.19550000     -72.13590000
C      -47.26080000     -32.52210000     -71.25640000
H      -49.05270000     -35.08370000     -72.75870000
C      -48.54240000     -32.00590000     -71.01190000
C      -46.23250000     -31.66230000     -70.65190000
C      -46.80980000     -30.50770000     -70.15540000
S      -49.88220000     -32.99520000     -71.57230000
S      -48.52150000     -30.46720000     -70.33390000
H      -46.31590000     -29.69670000     -69.63680000
