40
Properties=species:S:1:pos:R:3 #=T CELL(abcABC):=T 1.889726e+02=T 90.00000=T Traj:=T positionsangstrom=T Step:=T 0=T Bead:=T pbc="F F F"
C      -42.19750000     -34.88410000     -70.31960000
C      -41.95270000     -33.57020000     -70.76960000
C      -42.12490000     -33.28370000     -72.11430000
C      -42.59650000     -34.30480000     -72.92350000
C      -42.73190000     -35.63150000     -72.55570000
C      -42.49710000     -35.95540000     -71.18550000
H      -42.10780000     -35.11260000     -69.28830000
H      -41.93010000     -32.26420000     -72.45910000
H      -43.05560000     -36.43570000     -73.19230000
H      -42.65480000     -36.99970000     -70.75930000
C      -42.90500000     -33.86830000     -74.33730000
H      -42.15240000     -34.16990000     -75.07110000
H      -43.12210000     -32.81420000     -74.42890000
C      -41.51370000     -32.56500000     -69.71730000
H      -41.65010000     -32.94030000     -68.68340000
H      -40.46630000     -32.21520000     -69.86680000
S      -44.46730000     -34.66000000     -74.92260000
S      -42.42520000     -30.96220000     -69.97120000
C      -45.92620000     -33.84390000     -73.88470000
H      -45.53760000     -32.83300000     -73.56450000
H      -46.77750000     -33.79930000     -74.48790000
C      -44.23680000     -31.29540000     -69.55680000
H      -44.72440000     -30.36820000     -69.80610000
H      -44.24380000     -31.46660000     -68.48910000
C      -44.92370000     -32.54860000     -70.29900000
H      -44.64850000     -32.53210000     -71.30840000
H      -44.56070000     -33.45800000     -69.85340000
C      -46.20400000     -34.67790000     -72.61450000
H      -45.36820000     -34.59090000     -71.91630000
H      -46.31910000     -35.76140000     -72.84960000
C      -47.44400000     -34.09290000     -71.90820000
C      -48.68460000     -34.53640000     -72.26470000
C      -47.46040000     -33.26420000     -70.71720000
H      -48.92450000     -35.00750000     -73.15670000
C      -48.72360000     -33.09140000     -70.14400000
C      -46.46810000     -32.48310000     -70.05200000
C      -47.01130000     -31.77470000     -68.93710000
S      -49.95050000     -33.98560000     -71.07700000
S      -48.75550000     -32.02480000     -68.75450000
H      -46.55360000     -31.14430000     -68.21470000
