40
Properties=species:S:1:pos:R:3 #=T CELL(abcABC):=T 1.889726e+02=T 90.00000=T Traj:=T positionsangstrom=T Step:=T 0=T Bead:=T pbc="F F F"
C      -50.16000000     -32.74640000     -70.82010000
C      -48.93330000     -33.47980000     -70.92280000
C      -47.86950000     -33.27830000     -70.03350000
C      -47.96380000     -32.33220000     -69.01070000
C      -49.15400000     -31.59360000     -68.96520000
C      -50.27690000     -31.82060000     -69.80360000
H      -50.96370000     -32.93790000     -71.48800000
H      -46.88670000     -33.77610000     -70.23210000
H      -49.20730000     -30.76310000     -68.32410000
H      -51.21850000     -31.26130000     -69.73520000
C      -46.88840000     -32.02940000     -67.99650000
H      -46.44960000     -32.97370000     -67.73630000
H      -47.29590000     -31.53180000     -67.11410000
C      -48.75640000     -34.40800000     -72.10800000
H      -48.15310000     -35.26490000     -71.83760000
H      -49.73090000     -34.83450000     -72.40350000
S      -45.63860000     -30.90850000     -68.75890000
S      -48.05420000     -33.78390000     -73.71040000
C      -44.86070000     -31.72610000     -70.19210000
H      -45.60110000     -31.67340000     -70.97550000
H      -44.12080000     -30.98610000     -70.52990000
C      -46.30110000     -33.56240000     -73.47770000
H      -46.05190000     -32.70270000     -72.87520000
H      -45.82570000     -33.50640000     -74.52880000
C      -45.58970000     -34.73950000     -72.75780000
H      -45.70690000     -34.86160000     -71.71910000
H      -46.03170000     -35.57370000     -73.17990000
C      -44.31020000     -33.15430000     -69.92450000
H      -45.01250000     -33.95760000     -70.05970000
H      -43.99750000     -33.17180000     -68.88150000
C      -43.07820000     -33.51920000     -70.67110000
C      -41.82400000     -33.21640000     -70.18580000
C      -43.00840000     -34.24430000     -71.92670000
H      -41.48430000     -32.75530000     -69.27670000
C      -41.69670000     -34.47960000     -72.31090000
C      -44.03330000     -34.76160000     -72.89910000
C      -43.38730000     -35.22710000     -74.02650000
S      -40.53310000     -33.93610000     -71.11540000
S      -41.60580000     -35.18240000     -73.85690000
H      -43.78130000     -35.86280000     -74.78180000
