40
Properties=species:S:1:pos:R:3 #=T CELL(abcABC):=T 1.889726e+02=T 90.00000=T Traj:=T positionsangstrom=T Step:=T 0=T Bead:=T pbc="F F F"
C      -50.24290000     -32.61900000     -70.97740000
C      -49.01250000     -33.30300000     -71.05140000
C      -47.95940000     -33.09110000     -70.17680000
C      -48.06380000     -32.17340000     -69.16210000
C      -49.32340000     -31.52420000     -69.03060000
C      -50.35270000     -31.66890000     -69.97340000
H      -51.01940000     -32.75750000     -71.73800000
H      -47.09200000     -33.72180000     -70.25400000
H      -49.47220000     -30.89610000     -68.13890000
H      -51.23280000     -31.07680000     -69.81410000
C      -46.93560000     -32.05650000     -68.20350000
H      -46.49240000     -33.03770000     -68.01340000
H      -47.24180000     -31.78540000     -67.19240000
C      -48.83740000     -34.39970000     -72.04420000
H      -48.19810000     -35.16260000     -71.62220000
H      -49.80930000     -34.77970000     -72.35440000
S      -45.59230000     -30.78970000     -68.67700000
S      -48.05520000     -33.93190000     -73.73520000
C      -44.72500000     -31.86630000     -70.09020000
H      -45.56410000     -32.06560000     -70.75400000
H      -43.97350000     -31.23910000     -70.56270000
C      -46.23980000     -33.63360000     -73.43130000
H      -46.29040000     -32.66410000     -73.02160000
H      -45.83520000     -33.50160000     -74.43990000
C      -45.52490000     -34.72130000     -72.70360000
H      -45.83790000     -34.50000000     -71.65650000
H      -45.96870000     -35.76800000     -72.94050000
C      -44.18080000     -33.23410000     -69.71080000
H      -45.00890000     -33.95160000     -69.65370000
H      -43.82040000     -33.04980000     -68.69470000
C      -43.05650000     -33.65180000     -70.52910000
C      -41.73740000     -33.51360000     -70.06020000
C      -43.02150000     -34.22410000     -71.87720000
H      -41.46160000     -33.26990000     -69.11790000
C      -41.69190000     -34.51500000     -72.30650000
C      -44.00330000     -34.67220000     -72.82370000
C      -43.37790000     -35.06480000     -74.04460000
S      -40.45700000     -33.98790000     -71.12520000
S      -41.63530000     -35.23900000     -73.86550000
H      -43.79880000     -35.39390000     -74.98330000
