40
Properties=species:S:1:pos:R:3 #=T CELL(abcABC):=T 1.889726e+02=T 90.00000=T Traj:=T positionsangstrom=T Step:=T 0=T Bead:=T pbc="F F F"
C      -41.62120000     -34.86930000     -70.66940000
C      -41.99030000     -33.56650000     -70.98240000
C      -42.33680000     -33.24910000     -72.30970000
C      -42.52400000     -34.23340000     -73.24800000
C      -42.17670000     -35.56560000     -72.97390000
C      -41.67330000     -35.89080000     -71.67890000
H      -41.04260000     -35.15710000     -69.81860000
H      -42.45710000     -32.22120000     -72.61800000
H      -42.26740000     -36.37210000     -73.70280000
H      -41.30090000     -36.89890000     -71.58770000
C      -43.00390000     -33.73160000     -74.63850000
H      -42.21650000     -34.08840000     -75.27620000
H      -42.94140000     -32.66930000     -74.64490000
C      -41.61870000     -32.54980000     -69.95670000
H      -41.64730000     -32.89350000     -68.94340000
H      -40.56500000     -32.18780000     -70.02160000
S      -44.70000000     -34.26980000     -75.16270000
S      -42.61420000     -30.97750000     -69.87580000
C      -45.91290000     -33.39470000     -73.90380000
H      -45.45570000     -32.39710000     -73.59040000
H      -46.82080000     -33.16370000     -74.47090000
C      -44.31110000     -31.49160000     -69.15770000
H      -44.88580000     -30.62470000     -68.78160000
H      -44.23510000     -32.12810000     -68.26710000
C      -45.13270000     -32.24320000     -70.11600000
H      -45.24060000     -31.65380000     -71.05510000
H      -44.67050000     -33.18500000     -70.43800000
C      -46.22460000     -34.29880000     -72.67990000
H      -45.39690000     -34.32820000     -71.96280000
H      -46.34640000     -35.30790000     -73.01070000
C      -47.42410000     -33.99480000     -71.74640000
C      -48.62160000     -34.60460000     -72.09440000
C      -47.43700000     -33.29530000     -70.48730000
H      -48.64490000     -35.38410000     -72.87220000
C      -48.77500000     -33.32100000     -69.98030000
C      -46.54670000     -32.52040000     -69.71850000
C      -47.20230000     -32.01140000     -68.64250000
S      -49.89800000     -34.28820000     -70.92650000
S      -48.84940000     -32.46570000     -68.45680000
H      -46.66700000     -31.52840000     -67.84350000
