40
Properties=species:S:1:pos:R:3 #=T CELL(abcABC):=T 1.889726e+02=T 90.00000=T Traj:=T positionsangstrom=T Step:=T 0=T Bead:=T pbc="F F F"
C      -49.69500000     -31.88880000     -71.53350000
C      -49.07860000     -33.10820000     -71.18840000
C      -48.20430000     -33.12600000     -70.12730000
C      -48.01510000     -31.99840000     -69.35520000
C      -48.70140000     -30.83550000     -69.63190000
C      -49.45010000     -30.69450000     -70.81100000
H      -50.40000000     -31.89110000     -72.35260000
H      -47.56060000     -34.06890000     -69.89940000
H      -48.43740000     -29.95680000     -69.07290000
H      -49.98080000     -29.76470000     -71.20090000
C      -47.04170000     -32.07600000     -68.21490000
H      -46.83630000     -33.12600000     -67.91030000
H      -47.43780000     -31.55300000     -67.36660000
C      -49.23060000     -34.30010000     -72.06570000
H      -49.06820000     -35.23440000     -71.60000000
H      -50.22400000     -34.42420000     -72.48850000
S      -45.31860000     -31.25040000     -68.56400000
S      -48.17360000     -34.09490000     -73.52130000
C      -44.59250000     -32.32420000     -69.86940000
H      -45.31580000     -32.33610000     -70.69050000
H      -43.71130000     -31.80020000     -70.18770000
C      -46.47150000     -33.61210000     -72.96500000
H      -46.40950000     -32.61720000     -72.51050000
H      -46.04720000     -33.39220000     -73.97770000
C      -45.63610000     -34.64950000     -72.18810000
H      -45.85690000     -34.55580000     -71.12080000
H      -45.98940000     -35.67820000     -72.48350000
C      -44.07050000     -33.64560000     -69.35400000
H      -44.81770000     -34.41420000     -69.24530000
H      -43.69500000     -33.50510000     -68.28760000
C      -42.92020000     -34.06020000     -70.31880000
C      -41.58490000     -33.99420000     -69.96540000
C      -43.06780000     -34.27480000     -71.76240000
H      -41.19630000     -33.72510000     -69.05340000
C      -41.84610000     -34.39430000     -72.39990000
C      -44.16760000     -34.56600000     -72.60030000
C      -43.75490000     -34.89740000     -73.86340000
S      -40.53520000     -34.33730000     -71.28280000
S      -42.01930000     -34.87380000     -74.05160000
H      -44.40320000     -34.95380000     -74.75490000
