40
Properties=species:S:1:pos:R:3 #=T CELL(abcABC):=T 1.889726e+02=T 90.00000=T Traj:=T positionsangstrom=T Step:=T 0=T Bead:=T pbc="F F F"
C      -49.59940000     -31.57640000     -71.47070000
C      -48.99440000     -32.85550000     -71.28710000
C      -48.17800000     -32.96720000     -70.14120000
C      -47.96020000     -31.90530000     -69.33160000
C      -48.39170000     -30.62320000     -69.69120000
C      -49.27260000     -30.47570000     -70.73940000
H      -50.30360000     -31.48850000     -72.29400000
H      -47.76460000     -33.99890000     -69.91410000
H      -48.03450000     -29.85310000     -69.01980000
H      -49.65560000     -29.56040000     -71.16450000
C      -47.01260000     -32.01250000     -68.18620000
H      -46.90500000     -33.04330000     -67.85640000
H      -47.33210000     -31.55140000     -67.26840000
C      -49.35040000     -34.09870000     -72.13220000
H      -49.12710000     -34.90830000     -71.36710000
H      -50.40400000     -34.06550000     -72.48180000
S      -45.38360000     -31.21740000     -68.36090000
S      -48.24740000     -34.41010000     -73.65990000
C      -44.56770000     -32.21700000     -69.70350000
H      -45.32740000     -32.39120000     -70.48310000
H      -43.74250000     -31.60150000     -70.10890000
C      -46.60760000     -33.68600000     -73.19220000
H      -46.82470000     -32.90800000     -72.52050000
H      -46.11400000     -33.33420000     -74.13140000
C      -45.69300000     -34.69790000     -72.40350000
H      -45.82060000     -34.58170000     -71.37240000
H      -45.99120000     -35.66740000     -72.59840000
C      -44.07380000     -33.62290000     -69.34150000
H      -45.01620000     -34.16050000     -69.37660000
H      -43.57840000     -33.59270000     -68.39060000
C      -42.99210000     -34.11830000     -70.29440000
C      -41.66020000     -34.08020000     -69.91930000
C      -43.15780000     -34.47010000     -71.72240000
H      -41.45050000     -33.95020000     -68.87760000
C      -41.91470000     -34.62070000     -72.34100000
C      -44.20850000     -34.61090000     -72.66330000
C      -43.70170000     -34.80010000     -73.92700000
S      -40.49990000     -34.47780000     -71.24140000
S      -41.97830000     -34.87190000     -74.06070000
H      -44.30120000     -34.95490000     -74.80170000
