40
Properties=species:S:1:pos:R:3 #=T CELL(abcABC):=T 1.889726e+02=T 90.00000=T Traj:=T positionsangstrom=T Step:=T 0=T Bead:=T pbc="F F F"
C      -48.50790000     -31.57450000     -72.05540000
C      -48.58000000     -32.84990000     -71.39360000
C      -48.08400000     -32.98780000     -70.04540000
C      -47.60990000     -31.84140000     -69.38720000
C      -47.55030000     -30.63280000     -70.08450000
C      -47.89260000     -30.53180000     -71.39860000
H      -48.80970000     -31.49280000     -73.08260000
H      -48.10520000     -34.00900000     -69.63400000
H      -46.92110000     -29.83550000     -69.63140000
H      -47.80030000     -29.59690000     -71.93200000
C      -47.21850000     -31.94230000     -67.98380000
H      -47.50580000     -32.92910000     -67.55100000
H      -47.68410000     -31.20260000     -67.29290000
C      -49.10830000     -34.06440000     -72.12280000
H      -48.91030000     -34.99430000     -71.60620000
H      -50.22910000     -34.03190000     -72.22460000
S      -45.41200000     -31.56610000     -67.79450000
S      -48.44220000     -34.17150000     -73.80900000
C      -44.51080000     -32.18330000     -69.33040000
H      -45.10680000     -31.88240000     -70.18380000
H      -43.55820000     -31.57380000     -69.17290000
C      -46.67210000     -33.67990000     -73.62860000
H      -46.54430000     -32.57420000     -73.69720000
H      -46.17320000     -34.12950000     -74.50070000
C      -46.00350000     -34.22900000     -72.37180000
H      -46.12810000     -33.56000000     -71.45920000
H      -46.39760000     -35.23130000     -72.04180000
C      -44.19580000     -33.62790000     -69.31840000
H      -45.08790000     -34.22520000     -69.62820000
H      -43.87640000     -33.89120000     -68.29260000
C      -43.18760000     -34.08780000     -70.27170000
C      -41.86280000     -34.17800000     -69.87650000
C      -43.43770000     -34.36400000     -71.68370000
H      -41.39590000     -33.91800000     -68.92730000
C      -42.17120000     -34.61860000     -72.28130000
C      -44.50100000     -34.53430000     -72.61750000
C      -44.07960000     -34.91050000     -73.86900000
S      -40.83440000     -34.59390000     -71.24760000
S      -42.32160000     -34.92560000     -73.95910000
H      -44.57010000     -34.78510000     -74.79680000
