40
Properties=species:S:1:pos:R:3 #=T CELL(abcABC):=T 1.889726e+02=T 90.00000=T Traj:=T positionsangstrom=T Step:=T 0=T Bead:=T pbc="F F F"
C      -42.15920000     -34.75310000     -70.91300000
C      -41.96760000     -33.40950000     -71.36190000
C      -42.40150000     -32.94180000     -72.63910000
C      -42.93570000     -33.83760000     -73.58920000
C      -42.87160000     -35.21550000     -73.25940000
C      -42.49390000     -35.64080000     -71.96850000
H      -41.81650000     -35.02560000     -69.90440000
H      -42.36320000     -31.87680000     -72.83000000
H      -43.20700000     -35.94380000     -73.93160000
H      -42.41700000     -36.68580000     -71.83440000
C      -43.37340000     -33.36140000     -74.92530000
H      -42.85140000     -33.93210000     -75.69310000
H      -43.12180000     -32.27180000     -75.03790000
C      -41.43040000     -32.41470000     -70.37090000
H      -41.20380000     -32.87470000     -69.37140000
H      -40.51010000     -31.88480000     -70.82140000
S      -45.21680000     -33.73730000     -75.10500000
S      -42.62050000     -30.91110000     -70.12610000
C      -46.00780000     -33.16730000     -73.54090000
H      -45.60220000     -32.24650000     -73.26640000
H      -47.08640000     -33.00140000     -73.62100000
C      -44.07740000     -31.73440000     -69.35460000
H      -44.41330000     -31.06480000     -68.57610000
H      -43.82130000     -32.74450000     -68.94500000
C      -45.33280000     -31.75260000     -70.41460000
H      -45.46670000     -30.69850000     -70.64920000
H      -45.00480000     -32.27440000     -71.24720000
C      -45.79170000     -34.29380000     -72.42900000
H      -44.90580000     -34.09780000     -71.89880000
H      -45.67060000     -35.24140000     -72.88150000
C      -47.01550000     -34.38060000     -71.48030000
C      -47.97970000     -35.35600000     -71.58650000
C      -47.21570000     -33.55360000     -70.33130000
H      -47.97140000     -36.07350000     -72.40110000
C      -48.35080000     -33.79780000     -69.59640000
C      -46.57110000     -32.34930000     -69.82210000
C      -47.26860000     -31.81690000     -68.77220000
S      -49.24400000     -35.20170000     -70.30770000
S      -48.66290000     -32.65250000     -68.29780000
H      -46.99050000     -30.87990000     -68.27540000
