40
Properties=species:S:1:pos:R:3 #=T CELL(abcABC):=T 1.889726e+02=T 90.00000=T Traj:=T positionsangstrom=T Step:=T 0=T Bead:=T pbc="F F F"
C      -42.01350000     -34.75000000     -71.07380000
C      -41.91350000     -33.42230000     -71.44990000
C      -42.32670000     -32.92540000     -72.71500000
C      -42.84290000     -33.86970000     -73.65450000
C      -42.93280000     -35.24760000     -73.31300000
C      -42.52280000     -35.69010000     -72.03540000
H      -41.88930000     -35.08160000     -70.02130000
H      -42.39390000     -31.78440000     -72.94020000
H      -43.15720000     -36.01180000     -74.07580000
H      -42.64690000     -36.71020000     -71.75560000
C      -43.44100000     -33.33180000     -74.97490000
H      -43.06100000     -33.71960000     -75.91690000
H      -43.28420000     -32.24470000     -75.17420000
C      -41.50190000     -32.37580000     -70.45840000
H      -41.35390000     -32.91250000     -69.54650000
H      -40.50830000     -32.00720000     -70.66460000
S      -45.20680000     -33.66510000     -75.06780000
S      -42.60900000     -30.92700000     -70.15630000
C      -45.91820000     -33.41010000     -73.38730000
H      -45.44980000     -32.45490000     -73.12340000
H      -47.00570000     -33.23240000     -73.60170000
C      -44.03400000     -31.86800000     -69.37480000
H      -44.13680000     -31.52500000     -68.34770000
H      -43.74850000     -32.92280000     -69.41390000
C      -45.32570000     -31.64980000     -70.35690000
H      -45.53820000     -30.53710000     -70.52630000
H      -45.15440000     -31.92150000     -71.39790000
C      -45.78590000     -34.55360000     -72.36740000
H      -44.81890000     -34.46380000     -71.77330000
H      -45.83080000     -35.47770000     -73.00300000
C      -47.01430000     -34.51350000     -71.37070000
C      -48.01970000     -35.48800000     -71.33870000
C      -47.29320000     -33.44520000     -70.40930000
H      -48.00550000     -36.39870000     -71.90550000
C      -48.45060000     -33.65280000     -69.70800000
C      -46.51640000     -32.32090000     -69.82630000
C      -47.17780000     -31.76590000     -68.75700000
S      -49.26540000     -35.11390000     -70.16000000
S      -48.73420000     -32.55800000     -68.36450000
H      -46.72160000     -30.99160000     -68.22820000
