40
Properties=species:S:1:pos:R:3 #=T CELL(abcABC):=T 1.889726e+02=T 90.00000=T Traj:=T positionsangstrom=T Step:=T 0=T Bead:=T pbc="F F F"
C      -45.36420000     -30.81480000     -70.39700000
C      -43.98490000     -30.89030000     -70.28180000
C      -43.21320000     -30.98040000     -71.44200000
C      -43.78340000     -30.77380000     -72.68260000
C      -45.17330000     -30.55750000     -72.81260000
C      -45.96390000     -30.59090000     -71.66730000
H      -46.01400000     -31.00790000     -69.56380000
H      -42.14210000     -31.18690000     -71.43230000
H      -45.52940000     -30.56110000     -73.85120000
H      -47.10870000     -30.37720000     -71.73350000
C      -42.99560000     -30.94600000     -73.92000000
H      -42.07570000     -30.54420000     -73.83170000
H      -43.39260000     -30.46220000     -74.84380000
C      -43.25210000     -31.12620000     -68.99490000
H      -42.14620000     -31.08520000     -69.13250000
H      -43.49100000     -30.42120000     -68.14680000
S      -42.80580000     -32.70540000     -74.30830000
S      -43.82480000     -32.78670000     -68.29300000
C      -44.48870000     -33.45900000     -74.13860000
H      -45.20110000     -32.66180000     -74.43650000
H      -44.54360000     -34.22930000     -74.93160000
C      -43.33870000     -34.10420000     -69.52240000
H      -42.32020000     -34.48790000     -69.47340000
H      -43.34550000     -33.55770000     -70.37710000
C      -44.28970000     -35.29530000     -69.43000000
H      -43.84780000     -36.14200000     -69.95320000
H      -44.24220000     -35.61700000     -68.42920000
C      -44.73890000     -34.07420000     -72.74510000
H      -44.53850000     -33.18050000     -72.03160000
H      -43.96830000     -34.82490000     -72.63350000
C      -46.09640000     -34.60560000     -72.47330000
C      -47.12800000     -34.78600000     -73.36990000
C      -46.51890000     -34.88380000     -71.07980000
H      -47.08890000     -34.63090000     -74.44910000
C      -47.86850000     -35.29140000     -71.00390000
C      -45.82090000     -35.18760000     -69.81450000
C      -46.67190000     -35.64380000     -68.87570000
S      -48.63600000     -35.25460000     -72.59390000
S      -48.34450000     -35.65800000     -69.40530000
H      -46.38290000     -36.06560000     -67.93770000
