40
Properties=species:S:1:pos:R:3 #=T CELL(abcABC):=T 1.889726e+02=T 90.00000=T Traj:=T positionsangstrom=T Step:=T 0=T Bead:=T pbc="F F F"
C      -45.39360000     -30.53190000     -70.07160000
C      -44.06650000     -30.97900000     -70.10140000
C      -43.45350000     -30.97390000     -71.34580000
C      -44.14210000     -30.69580000     -72.49730000
C      -45.54990000     -30.58160000     -72.40330000
C      -46.17280000     -30.39470000     -71.22220000
H      -45.90070000     -30.39060000     -69.10340000
H      -42.40890000     -31.24370000     -71.38360000
H      -46.15960000     -30.58730000     -73.30760000
H      -47.17660000     -30.21750000     -71.20220000
C      -43.54980000     -30.89330000     -73.93240000
H      -42.79760000     -30.18610000     -74.30080000
H      -44.41460000     -30.78340000     -74.59400000
C      -43.27320000     -31.56500000     -68.90000000
H      -42.22520000     -31.72020000     -69.03640000
H      -43.39520000     -30.84920000     -68.06780000
S      -42.76280000     -32.53990000     -74.36600000
S      -43.98080000     -33.13770000     -68.22260000
C      -44.24810000     -33.70450000     -74.26980000
H      -45.07090000     -33.10720000     -74.49370000
H      -43.97040000     -34.38200000     -75.10390000
C      -43.31050000     -34.31900000     -69.48170000
H      -42.24440000     -34.70500000     -69.23510000
H      -43.14530000     -33.79260000     -70.42620000
C      -44.22050000     -35.56070000     -69.63970000
H      -43.80370000     -36.19640000     -70.45450000
H      -44.25500000     -36.16990000     -68.71680000
C      -44.43450000     -34.52670000     -72.96510000
H      -43.81570000     -34.05500000     -72.21800000
H      -44.09000000     -35.53040000     -73.20510000
C      -45.86160000     -34.54180000     -72.49680000
C      -46.87360000     -34.43210000     -73.40260000
C      -46.30290000     -34.96120000     -71.20320000
H      -46.89180000     -34.10500000     -74.43840000
C      -47.70970000     -34.98540000     -71.11840000
C      -45.68910000     -35.40740000     -69.95010000
C      -46.57360000     -35.77170000     -68.96850000
S      -48.49150000     -34.63670000     -72.67860000
S      -48.30050000     -35.69390000     -69.58800000
H      -46.41920000     -35.92790000     -67.92050000
