40
Properties=species:S:1:pos:R:3 #=T CELL(abcABC):=T 1.889726e+02=T 90.00000=T Traj:=T positionsangstrom=T Step:=T 0=T Bead:=T pbc="F F F"
C      -45.65070000     -30.86030000     -70.01920000
C      -44.28730000     -31.15090000     -70.07350000
C      -43.65350000     -31.15580000     -71.27790000
C      -44.30100000     -30.83230000     -72.48340000
C      -45.65090000     -30.59730000     -72.35400000
C      -46.39900000     -30.59230000     -71.17350000
H      -46.08570000     -30.93040000     -69.06850000
H      -42.60140000     -31.46300000     -71.27550000
H      -46.26840000     -30.40750000     -73.22570000
H      -47.39930000     -30.47400000     -71.16140000
C      -43.61140000     -30.84500000     -73.82250000
H      -42.82660000     -30.10910000     -73.82060000
H      -44.37250000     -30.78930000     -74.64400000
C      -43.49550000     -31.52270000     -68.91590000
H      -42.43130000     -31.60070000     -69.15070000
H      -43.69290000     -30.84790000     -68.08610000
S      -42.62680000     -32.52420000     -74.00690000
S      -44.08110000     -33.15100000     -68.38750000
C      -44.06370000     -33.57000000     -74.29800000
H      -44.90550000     -32.94220000     -74.58300000
H      -43.95340000     -34.21720000     -75.19250000
C      -43.26920000     -34.14860000     -69.68130000
H      -42.33720000     -34.50950000     -69.34520000
H      -43.13430000     -33.50360000     -70.54180000
C      -44.04800000     -35.58880000     -69.88440000
H      -43.47750000     -36.05600000     -70.71510000
H      -43.80060000     -36.22470000     -69.00620000
C      -44.39260000     -34.35730000     -73.02130000
H      -44.04300000     -33.72380000     -72.14880000
H      -43.95370000     -35.32530000     -72.95710000
C      -45.83760000     -34.57650000     -72.61800000
C      -46.91940000     -34.30520000     -73.41430000
C      -46.25790000     -35.14000000     -71.35570000
H      -46.84240000     -33.93840000     -74.44290000
C      -47.62640000     -35.04110000     -71.11780000
C      -45.53810000     -35.55690000     -70.09120000
C      -46.48580000     -35.84030000     -69.13150000
S      -48.44660000     -34.52660000     -72.59560000
S      -48.12390000     -35.50780000     -69.57000000
H      -46.34400000     -36.18870000     -68.13780000
