40
Properties=species:S:1:pos:R:3 #=T CELL(abcABC):=T 1.889726e+02=T 90.00000=T Traj:=T positionsangstrom=T Step:=T 0=T Bead:=T pbc="F F F"
C      -41.56000000     -35.10550000     -71.58410000
C      -41.83040000     -33.73740000     -71.55750000
C      -42.43540000     -33.13530000     -72.65100000
C      -42.76480000     -33.96590000     -73.74880000
C      -42.51290000     -35.32280000     -73.74320000
C      -41.79300000     -35.90680000     -72.69170000
H      -41.27980000     -35.61570000     -70.65100000
H      -42.75230000     -32.07320000     -72.70040000
H      -42.66650000     -35.90160000     -74.61020000
H      -41.65100000     -37.04740000     -72.73520000
C      -43.56760000     -33.27510000     -74.88290000
H      -43.20050000     -33.24340000     -75.92770000
H      -43.64120000     -32.22050000     -74.53770000
C      -41.46310000     -33.11040000     -70.29290000
H      -41.35070000     -33.80730000     -69.43670000
H      -40.54370000     -32.69600000     -70.35130000
S      -45.32970000     -33.95920000     -75.13370000
S      -42.56060000     -31.65400000     -69.84220000
C      -46.16440000     -33.25200000     -73.59400000
H      -45.94310000     -32.25390000     -73.54270000
H      -47.14430000     -33.27600000     -73.98480000
C      -44.25990000     -32.19500000     -69.38550000
H      -44.40600000     -32.21540000     -68.27920000
H      -44.47660000     -33.22980000     -69.63370000
C      -45.37620000     -31.31360000     -70.05090000
H      -45.28260000     -30.24890000     -69.72970000
H      -45.15510000     -31.31400000     -71.10880000
C      -45.86950000     -34.02500000     -72.28410000
H      -44.95320000     -33.68570000     -71.86310000
H      -45.75670000     -35.05930000     -72.61940000
C      -47.06460000     -34.00630000     -71.36480000
C      -47.95740000     -35.03710000     -71.34260000
C      -47.26740000     -33.04850000     -70.26630000
H      -47.78480000     -35.76010000     -72.12270000
C      -48.40120000     -33.42690000     -69.53360000
C      -46.70400000     -31.86700000     -69.70610000
C      -47.53000000     -31.25130000     -68.78030000
S      -49.12930000     -34.95150000     -70.00750000
S      -48.96880000     -32.19940000     -68.41100000
H      -47.27390000     -30.31390000     -68.25760000
