40
Properties=species:S:1:pos:R:3 #=T CELL(abcABC):=T 1.889726e+02=T 90.00000=T Traj:=T positionsangstrom=T Step:=T 0=T Bead:=T pbc="F F F"
C      -46.34600000     -31.27150000     -70.24250000
C      -44.99360000     -31.20280000     -69.87640000
C      -44.07780000     -30.85320000     -70.87350000
C      -44.46000000     -30.59270000     -72.23330000
C      -45.78310000     -30.76190000     -72.62260000
C      -46.68880000     -30.99140000     -71.56120000
H      -47.05710000     -31.59440000     -69.46900000
H      -43.01070000     -30.72870000     -70.67160000
H      -46.22450000     -30.54360000     -73.62120000
H      -47.70850000     -31.06610000     -71.85470000
C      -43.35190000     -30.41990000     -73.29710000
H      -42.59690000     -29.72960000     -72.88160000
H      -43.78800000     -30.03780000     -74.24990000
C      -44.47950000     -31.45080000     -68.46070000
H      -43.54860000     -30.94610000     -68.34590000
H      -45.23930000     -30.94430000     -67.84860000
S      -42.47200000     -31.99770000     -73.60260000
S      -44.32470000     -33.26860000     -67.90440000
C      -43.85180000     -33.11040000     -73.98470000
H      -44.82130000     -32.59540000     -73.86040000
H      -43.88180000     -33.43930000     -75.03030000
C      -43.42700000     -33.91290000     -69.39080000
H      -42.39740000     -33.97630000     -69.16330000
H      -43.66700000     -33.17890000     -70.11390000
C      -43.99870000     -35.25390000     -69.81100000
H      -43.52440000     -35.74090000     -70.73080000
H      -43.87950000     -36.01650000     -69.01120000
C      -43.98600000     -34.31690000     -73.04860000
H      -43.43750000     -34.32290000     -72.10100000
H      -43.56500000     -35.11840000     -73.61270000
C      -45.41040000     -34.64380000     -72.83090000
C      -46.42110000     -34.58660000     -73.74700000
C      -46.00880000     -35.11740000     -71.52120000
H      -46.20850000     -34.21180000     -74.79710000
C      -47.36140000     -35.34630000     -71.55470000
C      -45.51300000     -35.27360000     -70.18190000
C      -46.44090000     -35.68030000     -69.25720000
S      -47.97920000     -35.00440000     -73.19310000
S      -48.01400000     -35.87270000     -70.00830000
H      -46.20310000     -35.92140000     -68.25520000
