40
Properties=species:S:1:pos:R:3 #=T CELL(abcABC):=T 1.889726e+02=T 90.00000=T Traj:=T positionsangstrom=T Step:=T 0=T Bead:=T pbc="F F F"
C      -46.36810000     -31.16740000     -70.03050000
C      -44.99690000     -31.01990000     -69.67790000
C      -44.07480000     -30.71030000     -70.74300000
C      -44.44290000     -30.63350000     -72.08460000
C      -45.82790000     -30.76450000     -72.39970000
C      -46.72980000     -31.04800000     -71.38160000
H      -47.19170000     -31.51250000     -69.39730000
H      -43.01170000     -30.66230000     -70.53980000
H      -46.10270000     -30.58540000     -73.44270000
H      -47.80130000     -31.06830000     -71.68300000
C      -43.47670000     -30.32460000     -73.21150000
H      -42.79760000     -29.56140000     -73.00300000
H      -43.92710000     -30.04180000     -74.18380000
C      -44.47930000     -31.25500000     -68.29750000
H      -43.41570000     -30.88460000     -68.04130000
H      -45.19530000     -30.88170000     -67.50900000
S      -42.40180000     -31.89100000     -73.49280000
S      -44.60870000     -33.08670000     -68.04610000
C      -43.67290000     -33.14610000     -74.08060000
H      -44.55050000     -32.50410000     -74.32610000
H      -43.36490000     -33.61250000     -75.03120000
C      -43.50710000     -33.82310000     -69.36620000
H      -42.42970000     -33.95970000     -69.04450000
H      -43.57230000     -33.03010000     -70.15960000
C      -43.97820000     -35.28800000     -69.73080000
H      -43.25780000     -35.66130000     -70.36280000
H      -43.94820000     -35.72180000     -68.70140000
C      -43.98420000     -34.22100000     -73.03790000
H      -43.74260000     -33.88440000     -71.99800000
H      -43.36840000     -35.10880000     -73.25000000
C      -45.41650000     -34.66420000     -72.93590000
C      -46.36730000     -34.81240000     -73.91830000
C      -45.91400000     -35.15960000     -71.63900000
H      -46.18790000     -34.55160000     -74.94190000
C      -47.24850000     -35.41130000     -71.67320000
C      -45.41930000     -35.38140000     -70.29840000
C      -46.37510000     -35.91140000     -69.42650000
S      -47.96610000     -35.24060000     -73.27140000
S      -47.95330000     -35.96800000     -70.16070000
H      -46.26100000     -36.04870000     -68.34790000
