40
Properties=species:S:1:pos:R:3 #=T CELL(abcABC):=T 1.889726e+02=T 90.00000=T Traj:=T positionsangstrom=T Step:=T 0=T Bead:=T pbc="F F F"
C      -46.26550000     -30.90870000     -69.93160000
C      -44.90510000     -31.01550000     -69.63950000
C      -43.96340000     -30.77600000     -70.64700000
C      -44.37790000     -30.53520000     -72.00890000
C      -45.75590000     -30.62660000     -72.30160000
C      -46.70770000     -30.72660000     -71.25630000
H      -46.97730000     -31.16140000     -69.17900000
H      -42.88310000     -30.86250000     -70.42260000
H      -46.20810000     -30.43210000     -73.29070000
H      -47.74490000     -30.77880000     -71.55950000
C      -43.35250000     -30.28270000     -73.09770000
H      -42.55330000     -29.63810000     -72.76930000
H      -43.87650000     -29.98790000     -73.95930000
C      -44.47950000     -31.27000000     -68.15830000
H      -43.36820000     -31.05240000     -68.08210000
H      -45.06590000     -30.65650000     -67.40490000
S      -42.39360000     -31.82370000     -73.54710000
S      -44.79130000     -33.05970000     -67.85610000
C      -43.68300000     -33.05980000     -74.06840000
H      -44.65720000     -32.57080000     -74.32520000
H      -43.31460000     -33.55560000     -75.02580000
C      -43.77550000     -33.85720000     -69.13320000
H      -42.72580000     -33.84930000     -68.70130000
H      -43.91720000     -33.29230000     -70.04490000
C      -44.21810000     -35.22830000     -69.52240000
H      -43.31390000     -35.59970000     -70.18790000
H      -44.21910000     -35.86430000     -68.64380000
C      -43.92820000     -34.13450000     -72.93690000
H      -43.81850000     -33.67450000     -71.95840000
H      -43.13290000     -34.85420000     -72.96960000
C      -45.28920000     -34.75540000     -72.87300000
C      -46.13150000     -34.90170000     -73.97210000
C      -45.88730000     -35.16290000     -71.64800000
H      -45.98190000     -34.69990000     -75.01330000
C      -47.28310000     -35.49670000     -71.88800000
C      -45.49510000     -35.45770000     -70.29620000
C      -46.58500000     -35.90610000     -69.56250000
S      -47.74150000     -35.34380000     -73.50740000
S      -48.07090000     -36.22060000     -70.49380000
H      -46.55330000     -36.06230000     -68.45260000
