40
Properties=species:S:1:pos:R:3 #=T CELL(abcABC):=T 1.889726e+02=T 90.00000=T Traj:=T positionsangstrom=T Step:=T 0=T Bead:=T pbc="F F F"
C      -46.37900000     -30.94590000     -70.00750000
C      -45.04120000     -31.08510000     -69.66850000
C      -44.07750000     -30.83430000     -70.62040000
C      -44.37150000     -30.45170000     -71.94480000
C      -45.73820000     -30.24050000     -72.26700000
C      -46.71240000     -30.49330000     -71.27960000
H      -47.17320000     -31.25370000     -69.30730000
H      -43.01400000     -30.98620000     -70.34460000
H      -46.12160000     -29.95930000     -73.24470000
H      -47.67020000     -30.25020000     -71.54940000
C      -43.33290000     -30.23960000     -73.01050000
H      -42.56620000     -29.57860000     -72.66070000
H      -43.66340000     -29.65540000     -73.95370000
C      -44.59230000     -31.42220000     -68.25470000
H      -43.59040000     -31.10950000     -68.02630000
H      -45.27950000     -30.91520000     -67.56390000
S      -42.35960000     -31.77850000     -73.63130000
S      -44.78890000     -33.18190000     -67.79660000
C      -43.72240000     -32.98410000     -73.92600000
H      -44.61600000     -32.39080000     -73.98140000
H      -43.64720000     -33.38390000     -74.92110000
C      -43.74280000     -33.92250000     -69.15840000
H      -42.72160000     -33.94460000     -68.82640000
H      -43.88100000     -33.25440000     -70.06220000
C      -44.17140000     -35.33560000     -69.57540000
H      -43.46170000     -35.79510000     -70.24500000
H      -44.24470000     -35.90700000     -68.66080000
C      -43.82680000     -34.10730000     -72.82420000
H      -43.51840000     -33.58910000     -71.89660000
H      -43.13850000     -34.95530000     -73.06460000
C      -45.26300000     -34.66500000     -72.78620000
C      -46.04620000     -34.58730000     -73.88620000
C      -45.87640000     -35.32630000     -71.67580000
H      -45.80140000     -34.29030000     -74.89390000
C      -47.23080000     -35.62680000     -71.94630000
C      -45.57110000     -35.54320000     -70.26090000
C      -46.63300000     -36.03220000     -69.52360000
S      -47.63030000     -35.39130000     -73.61550000
S      -48.11150000     -36.22570000     -70.49210000
H      -46.68460000     -36.33160000     -68.49170000
