40
Properties=species:S:1:pos:R:3 #=T CELL(abcABC):=T 1.889726e+02=T 90.00000=T Traj:=T positionsangstrom=T Step:=T 0=T Bead:=T pbc="F F F"
C      -47.13990000     -30.53870000     -69.90140000
C      -47.88530000     -31.64990000     -70.15430000
C      -48.03550000     -32.17280000     -71.44830000
C      -47.55630000     -31.46340000     -72.54400000
C      -46.93840000     -30.21450000     -72.30170000
C      -46.73570000     -29.74070000     -71.01700000
H      -47.07820000     -30.16120000     -68.85630000
H      -48.53820000     -33.12950000     -71.60500000
H      -46.58810000     -29.67870000     -73.24910000
H      -46.30180000     -28.72020000     -70.82380000
C      -47.82970000     -31.91590000     -74.00050000
H      -47.24910000     -31.22320000     -74.66360000
H      -48.89340000     -31.73550000     -74.23400000
C      -48.45620000     -32.41260000     -68.91790000
H      -48.96910000     -31.74530000     -68.26470000
H      -49.11400000     -33.27280000     -69.04160000
S      -47.57600000     -33.77790000     -74.38290000
S      -47.11100000     -32.92060000     -67.60360000
C      -45.88070000     -34.00090000     -73.74180000
H      -45.13230000     -33.99810000     -74.61230000
H      -45.69010000     -33.04140000     -73.06710000
C      -45.51870000     -32.81320000     -68.55830000
H      -44.90220000     -33.24480000     -67.76070000
H      -45.28150000     -31.78860000     -68.74650000
C      -45.47720000     -33.81000000     -69.76680000
H      -45.97810000     -34.77840000     -69.52800000
H      -46.05240000     -33.34300000     -70.57730000
C      -45.71020000     -35.21110000     -72.82040000
H      -45.92610000     -36.10740000     -73.38770000
H      -46.29340000     -35.27030000     -71.93040000
C      -44.23230000     -35.39690000     -72.47980000
C      -43.31430000     -36.02160000     -73.25850000
C      -43.57690000     -34.70350000     -71.34950000
H      -43.56850000     -36.72690000     -74.08990000
C      -42.21590000     -34.79070000     -71.52890000
C      -44.00170000     -33.98500000     -70.21230000
C      -42.89710000     -33.45920000     -69.55700000
S      -41.62710000     -35.76660000     -72.85340000
S      -41.37080000     -33.84170000     -70.29950000
H      -42.89190000     -32.74200000     -68.63720000
