40
Properties=species:S:1:pos:R:3 #=T CELL(abcABC):=T 1.889726e+02=T 90.00000=T Traj:=T positionsangstrom=T Step:=T 0=T Bead:=T pbc="F F F"
C      -46.44050000     -30.80650000     -70.12910000
C      -45.11540000     -31.05830000     -69.74030000
C      -44.09650000     -30.90190000     -70.66890000
C      -44.34380000     -30.42420000     -71.93010000
C      -45.71550000     -30.16910000     -72.33610000
C      -46.74790000     -30.38460000     -71.40640000
H      -47.23480000     -30.72690000     -69.37990000
H      -43.08120000     -31.09050000     -70.33310000
H      -45.90300000     -30.05580000     -73.42990000
H      -47.76330000     -30.17130000     -71.73260000
C      -43.27330000     -30.17250000     -73.00870000
H      -42.59640000     -29.47410000     -72.62340000
H      -43.64100000     -29.63390000     -73.94440000
C      -44.81970000     -31.50650000     -68.32390000
H      -43.83810000     -31.11900000     -67.98230000
H      -45.54550000     -31.12630000     -67.61270000
S      -42.41080000     -31.71080000     -73.39380000
S      -44.86580000     -33.32500000     -67.99010000
C      -43.79810000     -32.87700000     -73.79420000
H      -44.74160000     -32.24060000     -73.69270000
H      -43.67600000     -33.22220000     -74.82650000
C      -43.69090000     -33.99000000     -69.25940000
H      -42.73070000     -33.96110000     -68.86190000
H      -43.65150000     -33.22090000     -70.09820000
C      -44.12170000     -35.43180000     -69.62540000
H      -43.33840000     -35.93540000     -70.11900000
H      -44.19070000     -35.97350000     -68.61520000
C      -43.83820000     -34.00040000     -72.73330000
H      -43.63270000     -33.56680000     -71.69240000
H      -43.01740000     -34.72350000     -72.87830000
C      -45.18240000     -34.67950000     -72.78880000
C      -45.95030000     -34.74300000     -73.86030000
C      -45.85060000     -35.30080000     -71.59620000
H      -45.77670000     -34.18270000     -74.80250000
C      -47.15390000     -35.65030000     -71.89770000
C      -45.52830000     -35.56350000     -70.19950000
C      -46.62100000     -36.01100000     -69.51770000
S      -47.56770000     -35.34510000     -73.55800000
S      -48.05440000     -36.28720000     -70.53670000
H      -46.65250000     -36.28560000     -68.50030000
