40
Properties=species:S:1:pos:R:3 #=T CELL(abcABC):=T 1.889726e+02=T 90.00000=T Traj:=T positionsangstrom=T Step:=T 0=T Bead:=T pbc="F F F"
C      -46.52270000     -30.90170000     -70.17760000
C      -45.15110000     -31.08770000     -69.75160000
C      -44.17710000     -30.79930000     -70.66660000
C      -44.47070000     -30.33660000     -71.96660000
C      -45.80380000     -30.14330000     -72.36770000
C      -46.82940000     -30.36580000     -71.39030000
H      -47.33440000     -31.29730000     -69.58060000
H      -43.15720000     -30.95270000     -70.42940000
H      -46.01290000     -29.44450000     -73.14400000
H      -47.94720000     -30.24420000     -71.65700000
C      -43.32720000     -30.04870000     -72.89330000
H      -42.58500000     -29.33110000     -72.46310000
H      -43.73150000     -29.72130000     -73.82580000
C      -44.76810000     -31.46430000     -68.35900000
H      -43.67110000     -31.24500000     -68.35140000
H      -45.24270000     -30.95790000     -67.53670000
S      -42.34530000     -31.63130000     -73.29260000
S      -44.98010000     -33.32580000     -68.09050000
C      -43.70290000     -32.81360000     -73.70000000
H      -44.67760000     -32.39480000     -73.50340000
H      -43.70490000     -33.11200000     -74.73420000
C      -43.67510000     -34.14160000     -69.06900000
H      -42.72170000     -34.34310000     -68.42280000
H      -43.44490000     -33.48740000     -69.86290000
C      -44.05380000     -35.50450000     -69.67720000
H      -43.21060000     -35.77790000     -70.38730000
H      -43.98610000     -36.20600000     -68.85270000
C      -43.75910000     -34.11480000     -72.88370000
H      -43.30950000     -34.01360000     -71.91900000
H      -43.14930000     -34.82800000     -73.35630000
C      -45.19990000     -34.66680000     -72.79110000
C      -46.04190000     -34.68400000     -73.83380000
C      -45.83240000     -35.24120000     -71.63590000
H      -45.87460000     -34.28300000     -74.84880000
C      -47.14320000     -35.60600000     -71.84770000
C      -45.41750000     -35.66560000     -70.35290000
C      -46.43420000     -36.16350000     -69.59780000
S      -47.63290000     -35.35370000     -73.53490000
S      -47.95880000     -36.28660000     -70.49780000
H      -46.40570000     -36.39570000     -68.51110000
