40
Properties=species:S:1:pos:R:3 #=T CELL(abcABC):=T 1.889726e+02=T 90.00000=T Traj:=T positionsangstrom=T Step:=T 0=T Bead:=T pbc="F F F"
C      -46.70930000     -31.14000000     -70.04730000
C      -45.40270000     -31.13040000     -69.57560000
C      -44.35910000     -30.68280000     -70.42850000
C      -44.54460000     -30.42330000     -71.76820000
C      -45.87110000     -30.46590000     -72.26110000
C      -46.90290000     -30.81920000     -71.40300000
H      -47.59730000     -31.56110000     -69.56330000
H      -43.32990000     -30.64040000     -69.98430000
H      -46.08650000     -30.21530000     -73.27710000
H      -47.85950000     -30.86170000     -71.76310000
C      -43.41320000     -30.08160000     -72.65520000
H      -42.70470000     -29.48740000     -72.14460000
H      -43.79990000     -29.48820000     -73.49280000
C      -45.10500000     -31.61040000     -68.21200000
H      -44.14290000     -31.26660000     -67.79510000
H      -45.83510000     -31.22330000     -67.51400000
S      -42.34520000     -31.40990000     -73.34400000
S      -45.24370000     -33.46470000     -68.13910000
C      -43.53950000     -32.71320000     -73.83420000
H      -44.50560000     -32.23630000     -73.79770000
H      -43.42030000     -33.08190000     -74.83900000
C      -43.75550000     -33.91960000     -69.17040000
H      -42.84680000     -33.78280000     -68.59240000
H      -43.62560000     -33.09650000     -69.98940000
C      -43.83390000     -35.29870000     -69.78080000
H      -43.01100000     -35.34080000     -70.50020000
H      -43.38070000     -35.96780000     -69.01280000
C      -43.68590000     -33.90140000     -72.93230000
H      -43.33000000     -33.63040000     -71.97560000
H      -43.01440000     -34.64790000     -73.25290000
C      -45.14150000     -34.43490000     -72.83160000
C      -46.06460000     -34.37320000     -73.87380000
C      -45.65580000     -35.20700000     -71.75550000
H      -46.01730000     -33.88050000     -74.81090000
C      -47.01710000     -35.61800000     -71.92740000
C      -45.15260000     -35.72390000     -70.47490000
C      -46.12950000     -36.39660000     -69.74950000
S      -47.66400000     -35.20690000     -73.50440000
S      -47.66230000     -36.46610000     -70.54220000
H      -46.03240000     -36.93250000     -68.79890000
