40
Properties=species:S:1:pos:R:3 #=T CELL(abcABC):=T 1.889726e+02=T 90.00000=T Traj:=T positionsangstrom=T Step:=T 0=T Bead:=T pbc="F F F"
C      -41.88460000     -35.38780000     -71.75520000
C      -41.97530000     -33.97580000     -71.75780000
C      -42.65120000     -33.36030000     -72.80920000
C      -43.12940000     -34.17550000     -73.92960000
C      -43.10390000     -35.56640000     -73.85660000
C      -42.56920000     -36.18520000     -72.71900000
H      -41.29900000     -35.82920000     -70.95410000
H      -42.67960000     -32.29360000     -72.85540000
H      -43.53670000     -36.21980000     -74.61020000
H      -42.52610000     -37.27800000     -72.67020000
C      -43.64160000     -33.40080000     -75.11240000
H      -43.41680000     -33.97630000     -76.03290000
H      -43.20890000     -32.37840000     -75.20370000
C      -41.43030000     -33.21160000     -70.53880000
H      -41.53660000     -33.82440000     -69.67550000
H      -40.36470000     -32.99020000     -70.90150000
S      -45.51790000     -33.40810000     -75.17890000
S      -42.23860000     -31.60990000     -70.06350000
C      -45.99070000     -32.82290000     -73.47220000
H      -45.04870000     -32.56080000     -72.95830000
H      -46.66470000     -32.00340000     -73.66420000
C      -43.83340000     -32.26130000     -69.39190000
H      -44.54910000     -31.36890000     -69.32520000
H      -43.68700000     -32.44260000     -68.30180000
C      -44.53400000     -33.49400000     -70.01990000
H      -44.48690000     -33.43180000     -71.06850000
H      -43.96330000     -34.35290000     -69.69830000
C      -46.82020000     -33.93510000     -72.70820000
H      -46.14260000     -34.74070000     -72.37240000
H      -47.44500000     -34.34360000     -73.46920000
C      -47.60680000     -33.39160000     -71.57130000
C      -49.00160000     -33.28720000     -71.63900000
C      -47.20240000     -33.26550000     -70.18960000
H      -49.54990000     -33.54770000     -72.56690000
C      -48.30020000     -33.08200000     -69.35360000
C      -45.99750000     -33.44590000     -69.41300000
C      -46.18410000     -33.35430000     -68.04230000
S      -49.85720000     -32.86890000     -70.13680000
S      -47.86610000     -32.92720000     -67.66170000
H      -45.43520000     -33.35240000     -67.24240000
