40
Properties=species:S:1:pos:R:3 #=T CELL(abcABC):=T 1.889726e+02=T 90.00000=T Traj:=T positionsangstrom=T Step:=T 0=T Bead:=T pbc="F F F"
C      -41.91600000     -35.47410000     -71.67210000
C      -41.84150000     -34.09720000     -71.77310000
C      -42.44730000     -33.41100000     -72.86720000
C      -43.05970000     -34.14700000     -73.88480000
C      -43.12240000     -35.55800000     -73.80590000
C      -42.62170000     -36.17160000     -72.71080000
H      -41.50370000     -36.04270000     -70.82790000
H      -42.43830000     -32.32190000     -72.78310000
H      -43.46180000     -36.14020000     -74.62460000
H      -42.70930000     -37.26740000     -72.56450000
C      -43.72290000     -33.46570000     -75.04110000
H      -43.32450000     -33.92740000     -75.97720000
H      -43.44990000     -32.42490000     -75.11780000
C      -41.25060000     -33.33060000     -70.61530000
H      -41.01370000     -33.88560000     -69.69990000
H      -40.25950000     -32.97260000     -70.83200000
S      -45.56300000     -33.60130000     -75.16470000
S      -42.21680000     -31.78880000     -70.13060000
C      -46.12770000     -32.74700000     -73.64310000
H      -45.37130000     -32.21700000     -73.05560000
H      -46.82890000     -31.90940000     -73.88690000
C      -43.85990000     -32.23010000     -69.43470000
H      -44.43440000     -31.36110000     -69.78340000
H      -43.81510000     -32.30590000     -68.38670000
C      -44.61010000     -33.37800000     -70.02820000
H      -44.69470000     -33.20490000     -71.14640000
H      -44.17690000     -34.38040000     -69.83740000
C      -46.86570000     -33.72930000     -72.71880000
H      -46.27210000     -34.52530000     -72.34160000
H      -47.69280000     -34.22040000     -73.27880000
C      -47.58750000     -33.24720000     -71.53320000
C      -48.92370000     -32.91410000     -71.66680000
C      -47.21940000     -33.13540000     -70.10790000
H      -49.44910000     -32.93290000     -72.62380000
C      -48.32080000     -32.90670000     -69.30490000
C      -46.03570000     -33.46460000     -69.37540000
C      -46.18880000     -33.36450000     -68.02110000
S      -49.83310000     -32.72640000     -70.15600000
S      -47.89060000     -33.04900000     -67.60570000
H      -45.50180000     -33.61860000     -67.19260000
