40
Properties=species:S:1:pos:R:3 #=T CELL(abcABC):=T 1.889726e+02=T 90.00000=T Traj:=T positionsangstrom=T Step:=T 0=T Bead:=T pbc="F F F"
C      -41.37580000     -32.68620000     -69.80330000
C      -41.70800000     -33.41870000     -70.97090000
C      -42.53280000     -34.55780000     -70.82160000
C      -43.06930000     -34.97060000     -69.64650000
C      -42.63600000     -34.31090000     -68.53940000
C      -41.88210000     -33.16290000     -68.60350000
H      -40.76300000     -31.83970000     -69.76040000
H      -42.85020000     -35.06030000     -71.67590000
H      -42.99920000     -34.57920000     -67.51110000
H      -41.75340000     -32.64020000     -67.68400000
C      -43.94610000     -36.21860000     -69.47280000
H      -43.35910000     -37.02400000     -69.11350000
H      -44.22700000     -36.53020000     -70.49930000
C      -41.23440000     -33.05150000     -72.38450000
H      -40.89920000     -32.05380000     -72.40190000
H      -40.30040000     -33.68330000     -72.54150000
S      -45.47210000     -36.12860000     -68.50600000
S      -42.37370000     -33.62390000     -73.73990000
C      -46.38090000     -34.59500000     -69.35000000
H      -47.22260000     -34.30050000     -68.67450000
H      -45.62910000     -33.76170000     -69.47330000
C      -43.79630000     -32.51490000     -73.63200000
H      -44.27740000     -32.29530000     -74.61500000
H      -43.42400000     -31.50640000     -73.29300000
C      -44.91740000     -33.03800000     -72.80130000
H      -45.18830000     -34.07250000     -73.09390000
H      -44.55650000     -33.21150000     -71.72970000
C      -46.89220000     -35.05050000     -70.73940000
H      -47.48420000     -35.99140000     -70.49960000
H      -46.01860000     -35.28830000     -71.29150000
C      -47.69770000     -33.92090000     -71.34290000
C      -49.00860000     -33.78550000     -70.89610000
C      -47.31350000     -32.75880000     -72.14060000
H      -49.49620000     -34.20190000     -70.03410000
C      -48.36610000     -31.80490000     -72.19510000
C      -46.20420000     -32.27500000     -72.85340000
C      -46.41850000     -31.06590000     -73.51130000
S      -49.78530000     -32.26920000     -71.33240000
S      -48.00990000     -30.39470000     -73.16360000
H      -45.64460000     -30.54760000     -74.12050000
