40
Properties=species:S:1:pos:R:3 #=T CELL(abcABC):=T 1.889726e+02=T 90.00000=T Traj:=T positionsangstrom=T Step:=T 0=T Bead:=T pbc="F F F"
C      -41.58390000     -32.62260000     -69.78470000
C      -41.87100000     -33.32610000     -70.94790000
C      -42.60040000     -34.52520000     -70.79790000
C      -43.06400000     -34.96240000     -69.54890000
C      -42.89260000     -34.14070000     -68.45620000
C      -42.23560000     -32.91980000     -68.54900000
H      -41.12740000     -31.63750000     -69.84450000
H      -42.75070000     -35.21170000     -71.58750000
H      -43.27690000     -34.39880000     -67.47020000
H      -42.04500000     -32.33290000     -67.64890000
C      -43.78390000     -36.31730000     -69.52250000
H      -43.19120000     -36.95140000     -68.88040000
H      -43.95970000     -36.71690000     -70.52010000
C      -41.25470000     -33.03450000     -72.25700000
H      -41.30900000     -31.94180000     -72.38710000
H      -40.24220000     -33.36800000     -72.39860000
S      -45.42990000     -36.16410000     -68.56010000
S      -42.14380000     -33.57130000     -73.75300000
C      -46.32530000     -34.79670000     -69.33690000
H      -47.20680000     -34.69160000     -68.74370000
H      -45.84060000     -33.84770000     -69.23240000
C      -43.70830000     -32.42780000     -73.68010000
H      -44.11970000     -32.42480000     -74.65120000
H      -43.34600000     -31.46050000     -73.46300000
C      -44.71580000     -32.93010000     -72.63040000
H      -44.91430000     -33.98650000     -72.86760000
H      -44.30080000     -32.92620000     -71.60120000
C      -46.78300000     -34.96470000     -70.83400000
H      -47.23850000     -35.89540000     -71.17130000
H      -45.99140000     -34.84160000     -71.52030000
C      -47.75670000     -33.86070000     -71.19620000
C      -49.06190000     -33.81900000     -70.79280000
C      -47.32180000     -32.64810000     -71.93390000
H      -49.56120000     -34.59150000     -70.21660000
C      -48.41570000     -31.80900000     -72.20830000
C      -46.06990000     -32.19040000     -72.58520000
C      -46.34310000     -31.12910000     -73.40600000
S      -49.92490000     -32.42350000     -71.49220000
S      -47.99220000     -30.56650000     -73.39420000
H      -45.58870000     -30.61880000     -73.98540000
