40
Properties=species:S:1:pos:R:3 #=T CELL(abcABC):=T 1.889726e+02=T 90.00000=T Traj:=T positionsangstrom=T Step:=T 0=T Bead:=T pbc="F F F"
C      -42.28760000     -35.94310000     -71.92000000
C      -42.10640000     -34.56150000     -71.79070000
C      -42.57840000     -33.66840000     -72.80140000
C      -43.42660000     -34.02730000     -73.80920000
C      -43.70480000     -35.48340000     -73.91050000
C      -43.07570000     -36.37420000     -73.06060000
H      -41.91370000     -36.68640000     -71.22050000
H      -42.33420000     -32.52040000     -72.71930000
H      -44.25200000     -35.83960000     -74.78300000
H      -43.16240000     -37.47200000     -73.28520000
C      -43.72180000     -33.11820000     -74.94250000
H      -43.19670000     -33.48800000     -75.79930000
H      -43.47940000     -32.10020000     -74.78400000
C      -41.25690000     -33.91730000     -70.68370000
H      -40.88890000     -34.77160000     -70.14080000
H      -40.37070000     -33.40760000     -71.05480000
S      -45.51360000     -33.29460000     -75.35010000
S      -42.03310000     -32.62110000     -69.55470000
C      -46.45490000     -32.68570000     -73.86890000
H      -46.09920000     -31.68340000     -73.63170000
H      -47.54320000     -32.56030000     -74.23090000
C      -43.41830000     -33.38290000     -68.80580000
H      -43.72540000     -32.70180000     -67.96610000
H      -43.01640000     -34.40360000     -68.38670000
C      -44.58490000     -33.53370000     -69.76860000
H      -44.33190000     -32.82950000     -70.58880000
H      -44.56030000     -34.59270000     -70.23690000
C      -46.44020000     -33.56470000     -72.64730000
H      -45.40120000     -33.72200000     -72.28060000
H      -46.80480000     -34.53380000     -72.85680000
C      -47.41820000     -33.15010000     -71.54370000
C      -48.71750000     -32.75920000     -71.83350000
C      -47.12040000     -33.15250000     -70.11030000
H      -49.26270000     -32.83700000     -72.78590000
C      -48.18020000     -32.58220000     -69.47210000
C      -45.99470000     -33.17710000     -69.25530000
C      -46.22870000     -32.85470000     -67.97040000
S      -49.64840000     -32.34160000     -70.38990000
S      -47.95290000     -32.37060000     -67.76850000
H      -45.51160000     -32.74180000     -67.12730000
