40
Properties=species:S:1:pos:R:3 #=T CELL(abcABC):=T 1.889726e+02=T 90.00000=T Traj:=T positionsangstrom=T Step:=T 0=T Bead:=T pbc="F F F"
C      -48.43150000     -35.76390000     -72.70410000
C      -47.74180000     -34.66280000     -73.16200000
C      -46.39910000     -34.79870000     -73.57600000
C      -45.80510000     -36.07870000     -73.56910000
C      -46.53930000     -37.20390000     -73.22360000
C      -47.80690000     -37.07780000     -72.72900000
H      -49.49230000     -35.57080000     -72.37910000
H      -45.87590000     -33.88400000     -73.92880000
H      -46.18000000     -38.12320000     -73.47310000
H      -48.44740000     -37.96570000     -72.44560000
C      -44.31740000     -36.11200000     -74.03520000
H      -44.09270000     -35.34120000     -74.68530000
H      -44.22010000     -37.04500000     -74.54260000
C      -48.55080000     -33.38070000     -73.26120000
H      -48.32080000     -32.80300000     -74.06950000
H      -49.62200000     -33.65570000     -73.35120000
S      -43.24030000     -36.21210000     -72.48370000
S      -48.41020000     -32.25200000     -71.71850000
C      -43.35560000     -34.41510000     -71.95310000
H      -42.64170000     -33.89770000     -72.52880000
H      -44.26790000     -33.87980000     -72.24080000
C      -47.93290000     -33.37310000     -70.29110000
H      -48.50850000     -34.26140000     -70.36040000
H      -48.29830000     -32.87510000     -69.28240000
C      -46.44920000     -33.53280000     -70.19610000
H      -46.20220000     -34.33260000     -69.46980000
H      -45.99020000     -33.79520000     -71.18570000
C      -43.06610000     -34.38560000     -70.43660000
H      -42.07030000     -34.82390000     -70.14650000
H      -43.84470000     -34.86820000     -69.84150000
C      -43.05750000     -32.92470000     -69.98740000
C      -41.83230000     -32.28220000     -69.93980000
C      -44.21310000     -32.12140000     -69.74330000
H      -40.83710000     -32.54320000     -70.24510000
C      -43.77350000     -30.81370000     -69.52950000
C      -45.67860000     -32.20900000     -69.85010000
C      -46.28020000     -30.99560000     -69.58910000
S      -42.02350000     -30.54650000     -69.71010000
S      -45.08290000     -29.67910000     -69.31570000
H      -47.30230000     -30.89110000     -69.44340000
