40
Properties=species:S:1:pos:R:3 #=T CELL(abcABC):=T 1.889726e+02=T 90.00000=T Traj:=T positionsangstrom=T Step:=T 0=T Bead:=T pbc="F F F"
C      -47.65490000     -30.51810000     -69.87830000
C      -48.15400000     -31.76520000     -70.13580000
C      -48.13020000     -32.28340000     -71.51310000
C      -47.74890000     -31.50880000     -72.59180000
C      -47.35960000     -30.17480000     -72.33440000
C      -47.34700000     -29.69110000     -71.00620000
H      -47.59100000     -30.06750000     -68.89260000
H      -48.34410000     -33.34130000     -71.56450000
H      -47.17190000     -29.59690000     -73.24780000
H      -46.87110000     -28.75580000     -70.87810000
C      -47.84600000     -31.96110000     -73.99600000
H      -47.20470000     -31.46050000     -74.76040000
H      -48.87100000     -31.66020000     -74.35220000
C      -48.41440000     -32.80520000     -69.11900000
H      -49.31610000     -32.40980000     -68.54880000
H      -48.73650000     -33.77450000     -69.61530000
S      -47.78740000     -33.77800000     -73.98870000
S      -47.10160000     -33.04580000     -67.90260000
C      -45.94110000     -34.02190000     -73.48080000
H      -45.43760000     -34.09850000     -74.44880000
H      -45.66190000     -33.11370000     -72.93790000
C      -45.46220000     -32.68180000     -68.64230000
H      -44.64800000     -32.59120000     -67.85780000
H      -45.45260000     -31.65970000     -69.15710000
C      -45.13600000     -33.59280000     -69.76240000
H      -45.60100000     -34.53820000     -69.46680000
H      -45.64020000     -33.28600000     -70.65010000
C      -45.64370000     -35.22170000     -72.55150000
H      -46.11940000     -36.27730000     -72.69770000
H      -46.04770000     -34.96390000     -71.54140000
C      -44.11940000     -35.37690000     -72.35060000
C      -43.30130000     -35.90360000     -73.27820000
C      -43.37500000     -34.71110000     -71.34600000
H      -43.63290000     -36.46620000     -74.14470000
C      -41.99970000     -34.80020000     -71.49110000
C      -43.66070000     -33.88080000     -70.19700000
C      -42.54840000     -33.24010000     -69.68780000
S      -41.56300000     -35.77490000     -72.88610000
S      -41.05470000     -33.77100000     -70.41740000
H      -42.52310000     -32.57430000     -68.88340000
