40
Properties=species:S:1:pos:R:3 #=T CELL(abcABC):=T 1.889726e+02=T 90.00000=T Traj:=T positionsangstrom=T Step:=T 0=T Bead:=T pbc="F F F"
C      -42.07930000     -31.50020000     -69.35110000
C      -41.89740000     -32.33600000     -70.42790000
C      -42.33860000     -33.68260000     -70.34320000
C      -42.93020000     -34.16070000     -69.19430000
C      -43.14230000     -33.24270000     -68.10690000
C      -42.70370000     -31.97670000     -68.14000000
H      -41.69370000     -30.47080000     -69.49690000
H      -42.07970000     -34.33370000     -71.20870000
H      -43.68350000     -33.50430000     -67.12830000
H      -42.87130000     -31.25630000     -67.35640000
C      -43.18960000     -35.68460000     -69.04730000
H      -42.66440000     -36.20090000     -68.26190000
H      -43.00740000     -36.21190000     -69.99420000
C      -41.33040000     -31.81560000     -71.71200000
H      -41.32560000     -30.73810000     -71.78370000
H      -40.27280000     -31.99650000     -71.69510000
S      -44.91390000     -35.97260000     -68.48380000
S      -42.12290000     -32.52390000     -73.31460000
C      -45.97940000     -34.82100000     -69.47710000
H      -46.83340000     -34.70060000     -68.79670000
H      -45.45840000     -33.79800000     -69.61380000
C      -43.89620000     -31.98800000     -73.34930000
H      -44.14280000     -32.27510000     -74.40550000
H      -43.95700000     -30.89060000     -73.23360000
C      -44.84640000     -32.83190000     -72.46240000
H      -44.72440000     -33.93960000     -72.61290000
H      -44.78030000     -32.66150000     -71.40750000
C      -46.38650000     -35.44920000     -70.89160000
H      -46.89800000     -36.43290000     -70.79960000
H      -45.47700000     -35.68640000     -71.51020000
C      -47.46920000     -34.64430000     -71.54590000
C      -48.77190000     -35.02960000     -71.53960000
C      -47.30160000     -33.44070000     -72.34730000
H      -49.14650000     -35.94550000     -70.96140000
C      -48.56850000     -33.00340000     -72.76750000
C      -46.27370000     -32.54460000     -72.83350000
C      -46.75830000     -31.47910000     -73.55790000
S      -49.92940000     -33.93530000     -72.29600000
S      -48.52350000     -31.53210000     -73.74610000
H      -46.13180000     -30.68280000     -73.88950000
