40
Properties=species:S:1:pos:R:3 #=T CELL(abcABC):=T 1.889726e+02=T 90.00000=T Traj:=T positionsangstrom=T Step:=T 0=T Bead:=T pbc="F F F"
C      -42.45180000     -31.34520000     -68.97430000
C      -42.20830000     -31.96460000     -70.23270000
C      -42.36400000     -33.34900000     -70.28590000
C      -42.69370000     -34.04950000     -69.07840000
C      -42.87940000     -33.40110000     -67.90290000
C      -42.64390000     -32.04970000     -67.81110000
H      -42.31880000     -30.22210000     -68.86750000
H      -42.24800000     -34.00820000     -71.16910000
H      -42.99660000     -34.06690000     -67.05080000
H      -42.75660000     -31.50800000     -66.82460000
C      -42.97350000     -35.50790000     -69.17020000
H      -42.38070000     -36.09560000     -68.49550000
H      -42.72000000     -35.84900000     -70.21450000
C      -41.73950000     -31.14190000     -71.36980000
H      -42.07520000     -30.15980000     -71.23240000
H      -40.62860000     -31.22280000     -71.43830000
S      -44.66410000     -36.03470000     -68.64990000
S      -42.33060000     -31.58910000     -73.07940000
C      -45.97310000     -34.90140000     -69.60770000
H      -46.90270000     -34.96910000     -69.11090000
H      -45.64400000     -33.86880000     -69.48650000
C      -44.12300000     -31.56980000     -73.19470000
H      -44.46370000     -31.36260000     -74.19810000
H      -44.52120000     -30.76500000     -72.60910000
C      -44.84190000     -32.84280000     -72.81870000
H      -44.39130000     -33.72150000     -73.34040000
H      -44.63090000     -32.88910000     -71.73930000
C      -46.06480000     -35.48630000     -71.05470000
H      -45.92360000     -36.60380000     -71.12960000
H      -45.18670000     -35.12450000     -71.60920000
C      -47.26930000     -34.89820000     -71.68640000
C      -48.50360000     -35.40270000     -71.43520000
C      -47.32670000     -33.67950000     -72.48760000
H      -48.75510000     -36.30330000     -70.87450000
C      -48.63610000     -33.38810000     -72.91650000
C      -46.34370000     -32.75850000     -73.09130000
C      -46.92250000     -31.85490000     -73.97440000
S      -49.78400000     -34.50130000     -72.23410000
S      -48.68100000     -31.91720000     -73.88940000
H      -46.41870000     -30.96720000     -74.40420000
