40
Properties=species:S:1:pos:R:3 #=T CELL(abcABC):=T 1.889726e+02=T 90.00000=T Traj:=T positionsangstrom=T Step:=T 0=T Bead:=T pbc="F F F"
C      -42.47000000     -31.23640000     -68.91750000
C      -42.32980000     -31.80950000     -70.19760000
C      -42.50930000     -33.21910000     -70.23980000
C      -42.91130000     -33.89830000     -69.07870000
C      -43.00350000     -33.23130000     -67.84200000
C      -42.81920000     -31.84400000     -67.74080000
H      -42.33880000     -30.10780000     -68.96610000
H      -42.39980000     -33.77150000     -71.12310000
H      -43.47720000     -33.79400000     -67.06010000
H      -42.77110000     -31.34630000     -66.74900000
C      -42.89700000     -35.39560000     -69.17700000
H      -42.22110000     -35.82370000     -68.44440000
H      -42.56660000     -35.75270000     -70.15690000
C      -41.88900000     -30.95800000     -71.37190000
H      -42.24320000     -29.91420000     -71.16850000
H      -40.81550000     -30.77100000     -71.28150000
S      -44.57910000     -36.12170000     -68.66630000
S      -42.24180000     -31.59440000     -73.06410000
C      -45.75150000     -35.16310000     -69.71010000
H      -46.71540000     -35.24110000     -69.24520000
H      -45.45300000     -34.06230000     -69.91300000
C      -44.13580000     -31.52630000     -72.99280000
H      -44.31560000     -31.26590000     -74.06670000
H      -44.46810000     -30.69220000     -72.37180000
C      -44.79550000     -32.82660000     -72.65110000
H      -44.46550000     -33.55780000     -73.35500000
H      -44.71890000     -33.22700000     -71.62470000
C      -46.12890000     -35.72460000     -71.17920000
H      -46.40850000     -36.78760000     -71.12980000
H      -45.36080000     -35.65680000     -71.93690000
C      -47.30910000     -35.01620000     -71.72750000
C      -48.55490000     -35.46160000     -71.58530000
C      -47.28250000     -33.82060000     -72.54160000
H      -48.78290000     -36.41790000     -71.01160000
C      -48.54260000     -33.43720000     -73.00330000
C      -46.32660000     -32.74250000     -72.89260000
C      -46.85330000     -31.85430000     -73.78680000
S      -49.79200000     -34.46700000     -72.30300000
S      -48.61020000     -32.03560000     -73.98920000
H      -46.39840000     -30.97730000     -74.23620000
