40
Properties=species:S:1:pos:R:3 #=T CELL(abcABC):=T 1.889726e+02=T 90.00000=T Traj:=T positionsangstrom=T Step:=T 0=T Bead:=T pbc="F F F"
C      -43.33880000     -36.54310000     -71.68030000
C      -42.58980000     -35.50030000     -71.29810000
C      -42.42830000     -34.41180000     -72.20220000
C      -43.15750000     -34.35020000     -73.38940000
C      -43.98770000     -35.47990000     -73.75470000
C      -44.06290000     -36.54590000     -72.90210000
H      -43.45830000     -37.37620000     -71.05130000
H      -41.88950000     -33.49970000     -72.01680000
H      -44.53820000     -35.42520000     -74.67580000
H      -44.51500000     -37.52750000     -73.08530000
C      -42.88260000     -33.29810000     -74.46080000
H      -42.52360000     -33.77580000     -75.42400000
H      -42.02410000     -32.66030000     -74.19160000
C      -41.84960000     -35.44710000     -70.01200000
H      -42.07870000     -36.22170000     -69.30640000
H      -40.74390000     -35.51410000     -70.17780000
S      -44.32720000     -32.23500000     -74.86570000
S      -42.18170000     -33.85090000     -69.13140000
C      -45.20510000     -31.99620000     -73.28600000
H      -44.46700000     -31.96670000     -72.44710000
H      -45.69670000     -31.00500000     -73.40720000
C      -44.02390000     -34.04210000     -69.11360000
H      -44.25520000     -33.77310000     -67.96520000
H      -44.29210000     -35.06630000     -69.31810000
C      -44.65090000     -32.96000000     -70.00840000
H      -44.13740000     -32.00410000     -69.81160000
H      -44.48930000     -33.27750000     -70.98420000
C      -46.26760000     -33.12420000     -73.06600000
H      -45.86290000     -34.12240000     -72.72160000
H      -46.67140000     -33.40740000     -74.07570000
C      -47.29910000     -32.65590000     -72.02850000
C      -48.59820000     -32.40930000     -72.39160000
C      -47.17900000     -32.45840000     -70.57670000
H      -49.01560000     -32.27090000     -73.40420000
C      -48.38590000     -32.19440000     -69.91850000
C      -46.11070000     -32.70830000     -69.63820000
C      -46.49900000     -32.51520000     -68.31090000
S      -49.71570000     -32.04470000     -71.03550000
S      -48.22260000     -32.15230000     -68.16530000
H      -46.03520000     -32.57630000     -67.39570000
