40
Properties=species:S:1:pos:R:3 #=T CELL(abcABC):=T 1.889726e+02=T 90.00000=T Traj:=T positionsangstrom=T Step:=T 0=T Bead:=T pbc="F F F"
C      -43.05360000     -36.24900000     -71.33730000
C      -42.34610000     -35.08520000     -70.96360000
C      -42.23330000     -34.03480000     -71.89810000
C      -42.75170000     -34.18170000     -73.22780000
C      -43.36780000     -35.37980000     -73.52530000
C      -43.51350000     -36.42680000     -72.61680000
H      -43.23190000     -37.08490000     -70.62090000
H      -41.71040000     -33.19500000     -71.59760000
H      -43.72220000     -35.56530000     -74.51820000
H      -44.02820000     -37.37950000     -72.98720000
C      -42.60610000     -33.15090000     -74.39760000
H      -41.92790000     -33.58690000     -75.13260000
H      -42.18540000     -32.21170000     -74.06010000
C      -41.83750000     -34.94930000     -69.60090000
H      -42.00480000     -35.92190000     -69.12940000
H      -40.75870000     -34.81680000     -69.65280000
S      -44.21350000     -32.78210000     -75.20170000
S      -42.45060000     -33.45880000     -68.55410000
C      -45.26060000     -32.20610000     -73.72250000
H      -44.61330000     -31.62500000     -73.07730000
H      -45.94090000     -31.50120000     -74.26190000
C      -44.26070000     -33.54780000     -68.34700000
H      -44.60480000     -32.88950000     -67.60420000
H      -44.60290000     -34.47280000     -67.97190000
C      -45.00880000     -33.30450000     -69.70200000
H      -44.49270000     -32.50800000     -70.24150000
H      -44.89440000     -34.21460000     -70.29730000
C      -45.99860000     -33.26780000     -72.88670000
H      -45.30080000     -33.82410000     -72.26950000
H      -46.47730000     -34.07730000     -73.49870000
C      -47.09100000     -32.73170000     -72.08860000
C      -48.27540000     -32.35930000     -72.76560000
C      -47.28120000     -32.81050000     -70.67940000
H      -48.29490000     -32.36580000     -73.82970000
C      -48.52840000     -32.38930000     -70.33480000
C      -46.50370000     -33.04050000     -69.55120000
C      -47.20050000     -32.86130000     -68.35340000
S      -49.47620000     -31.86830000     -71.72010000
S      -48.86320000     -32.45900000     -68.59240000
H      -46.86140000     -33.06990000     -67.31380000
