40
Properties=species:S:1:pos:R:3 #=T CELL(abcABC):=T 1.889726e+02=T 90.00000=T Traj:=T positionsangstrom=T Step:=T 0=T Bead:=T pbc="F F F"
C      -42.76530000     -36.28380000     -70.61580000
C      -42.33870000     -34.94170000     -70.44110000
C      -42.12690000     -34.05640000     -71.46770000
C      -42.56810000     -34.30480000     -72.74200000
C      -43.00750000     -35.58180000     -72.97650000
C      -43.26730000     -36.51400000     -71.90300000
H      -42.86100000     -36.86730000     -69.69160000
H      -41.76610000     -33.03990000     -71.13500000
H      -43.48760000     -35.92000000     -73.88870000
H      -43.68030000     -37.40360000     -72.22010000
C      -42.50710000     -33.24680000     -73.80200000
H      -41.54560000     -33.35410000     -74.35150000
H      -42.40270000     -32.13750000     -73.49430000
C      -42.10200000     -34.62980000     -68.95370000
H      -42.87480000     -35.17730000     -68.41710000
H      -41.10460000     -34.85070000     -68.57820000
S      -43.92840000     -33.30840000     -74.97390000
S      -42.51190000     -32.87900000     -68.59050000
C      -45.00200000     -32.51070000     -73.72670000
H      -44.39450000     -32.16280000     -72.91610000
H      -45.60120000     -31.66140000     -73.89990000
C      -44.35290000     -32.82040000     -68.62130000
H      -44.72050000     -31.85210000     -68.23160000
H      -44.83900000     -33.46820000     -67.83060000
C      -45.07210000     -33.00280000     -69.96690000
H      -44.52320000     -32.36170000     -70.69490000
H      -44.91680000     -34.06320000     -70.31200000
C      -45.98420000     -33.54240000     -73.12350000
H      -45.52300000     -34.26170000     -72.37730000
H      -46.29080000     -34.26000000     -73.95600000
C      -47.24230000     -33.00040000     -72.46930000
C      -48.43010000     -32.78300000     -73.13660000
C      -47.42730000     -32.78860000     -71.08180000
H      -48.66580000     -32.80560000     -74.16180000
C      -48.73470000     -32.39580000     -70.77250000
C      -46.56600000     -32.72040000     -69.89000000
C      -47.30840000     -32.58850000     -68.73820000
S      -49.70990000     -32.21850000     -72.19270000
S      -48.95490000     -32.32520000     -69.03080000
H      -46.98180000     -32.62600000     -67.72820000
