40
Properties=species:S:1:pos:R:3 #=T CELL(abcABC):=T 1.889726e+02=T 90.00000=T Traj:=T positionsangstrom=T Step:=T 0=T Bead:=T pbc="F F F"
C      -48.61640000     -32.00060000     -70.25410000
C      -47.68340000     -31.73870000     -69.26050000
C      -46.72140000     -30.67240000     -69.38920000
C      -46.68780000     -29.94240000     -70.58160000
C      -47.66870000     -30.20580000     -71.56410000
C      -48.67110000     -31.18150000     -71.41990000
H      -49.30580000     -32.79330000     -70.09200000
H      -46.07050000     -30.41960000     -68.56340000
H      -47.65060000     -29.57240000     -72.52180000
H      -49.40090000     -31.31540000     -72.18220000
C      -45.49880000     -28.94900000     -70.96300000
H      -45.11630000     -28.49050000     -70.09220000
H      -45.84100000     -28.22440000     -71.74730000
C      -47.68820000     -32.53550000     -67.95350000
H      -47.15100000     -32.01070000     -67.08850000
H      -48.75420000     -32.82210000     -67.78130000
S      -43.94330000     -29.92120000     -71.51010000
S      -46.76890000     -34.13770000     -68.20420000
C      -44.35890000     -31.50110000     -72.44850000
H      -45.43950000     -31.80080000     -72.52650000
H      -44.06870000     -31.24080000     -73.42080000
C      -45.75520000     -33.90120000     -69.74780000
H      -45.40930000     -32.86370000     -69.82730000
H      -46.32420000     -34.26040000     -70.57520000
C      -44.54900000     -34.87410000     -69.67620000
H      -43.59490000     -34.30880000     -69.55190000
H      -44.58850000     -35.46650000     -68.80020000
C      -43.57600000     -32.66730000     -71.88620000
H      -43.85870000     -32.83210000     -70.82890000
H      -42.53340000     -32.30680000     -71.83300000
C      -43.72370000     -33.95770000     -72.65790000
C      -43.52710000     -33.92390000     -74.02350000
C      -43.97310000     -35.24970000     -72.22090000
H      -43.26040000     -33.12100000     -74.69640000
C      -43.88270000     -36.24380000     -73.22390000
C      -44.33680000     -35.76030000     -70.89580000
C      -44.47050000     -37.18270000     -70.99770000
S      -43.73880000     -35.45540000     -74.79170000
S      -44.34740000     -37.75160000     -72.61570000
H      -44.64530000     -37.94630000     -70.24070000
