40
Properties=species:S:1:pos:R:3 #=T CELL(abcABC):=T 1.889726e+02=T 90.00000=T Traj:=T positionsangstrom=T Step:=T 0=T Bead:=T pbc="F F F"
C      -48.86290000     -31.83030000     -70.11560000
C      -47.75520000     -31.63320000     -69.22610000
C      -46.74570000     -30.69170000     -69.55650000
C      -46.76160000     -29.94690000     -70.72550000
C      -47.72890000     -30.32210000     -71.66650000
C      -48.78430000     -31.24570000     -71.34290000
H      -49.70490000     -32.43150000     -69.82000000
H      -45.88320000     -30.62600000     -68.87390000
H      -47.74370000     -29.92970000     -72.69500000
H      -49.46990000     -31.27330000     -72.13380000
C      -45.66450000     -29.02190000     -71.09420000
H      -45.49450000     -28.30620000     -70.27460000
H      -45.84480000     -28.45270000     -71.99350000
C      -47.66890000     -32.42650000     -68.00780000
H      -47.06910000     -31.99250000     -67.20780000
H      -48.62060000     -32.50140000     -67.61740000
S      -43.97070000     -29.83060000     -71.44880000
S      -46.89080000     -34.16840000     -68.18800000
C      -44.44280000     -31.46120000     -72.28110000
H      -45.37480000     -31.83740000     -71.86390000
H      -44.53140000     -31.13010000     -73.33030000
C      -45.83910000     -34.13300000     -69.66540000
H      -45.49870000     -33.09650000     -69.97510000
H      -46.46440000     -34.27010000     -70.52130000
C      -44.66800000     -35.10140000     -69.62530000
H      -43.78820000     -34.52020000     -69.25690000
H      -44.82570000     -36.00550000     -68.95790000
C      -43.36640000     -32.58410000     -72.08110000
H      -43.45570000     -32.74690000     -71.04930000
H      -42.33340000     -32.29390000     -72.28280000
C      -43.60450000     -33.88290000     -72.75940000
C      -43.26500000     -33.96170000     -74.08870000
C      -44.05960000     -35.12010000     -72.24800000
H      -42.93280000     -33.12200000     -74.62130000
C      -43.88760000     -36.17230000     -73.15890000
C      -44.43590000     -35.67350000     -70.93680000
C      -44.60200000     -37.08350000     -70.95580000
S      -43.42240000     -35.57380000     -74.76360000
S      -44.20640000     -37.74920000     -72.57570000
H      -44.79590000     -37.81060000     -70.09690000
