40
Properties=species:S:1:pos:R:3 #=T CELL(abcABC):=T 1.889726e+02=T 90.00000=T Traj:=T positionsangstrom=T Step:=T 0=T Bead:=T pbc="F F F"
C      -48.76440000     -31.87800000     -70.06010000
C      -47.62280000     -31.66230000     -69.31590000
C      -46.59780000     -30.82290000     -69.72110000
C      -46.77510000     -30.08610000     -70.91300000
C      -47.93390000     -30.32720000     -71.67720000
C      -48.90980000     -31.22610000     -71.24230000
H      -49.43270000     -32.64000000     -69.78070000
H      -45.74500000     -30.70180000     -69.03720000
H      -48.09850000     -29.80520000     -72.61090000
H      -49.68780000     -31.47420000     -72.00400000
C      -45.72830000     -29.08060000     -71.34010000
H      -45.66340000     -28.26440000     -70.60040000
H      -45.93170000     -28.57180000     -72.31130000
C      -47.55330000     -32.38770000     -67.93650000
H      -46.78740000     -31.80980000     -67.32760000
H      -48.43430000     -32.22360000     -67.26820000
S      -44.10170000     -29.99760000     -71.42450000
S      -47.00860000     -34.07050000     -68.06660000
C      -44.51550000     -31.58220000     -72.31420000
H      -45.55120000     -31.87430000     -72.22910000
H      -44.39230000     -31.37930000     -73.41850000
C      -46.20530000     -34.23040000     -69.72640000
H      -45.97070000     -33.29190000     -70.22500000
H      -46.96980000     -34.80520000     -70.29070000
C      -44.80350000     -34.93360000     -69.68310000
H      -44.15550000     -34.16750000     -69.37970000
H      -44.76000000     -35.69450000     -68.87110000
C      -43.41610000     -32.57500000     -71.89090000
H      -43.44090000     -32.89660000     -70.83770000
H      -42.45820000     -32.07560000     -72.00950000
C      -43.52630000     -33.81720000     -72.74840000
C      -43.05770000     -33.85570000     -74.04560000
C      -43.92840000     -35.12230000     -72.26030000
H      -42.52540000     -33.12380000     -74.61870000
C      -43.71750000     -36.13820000     -73.17390000
C      -44.48680000     -35.62700000     -71.02070000
C      -44.60950000     -37.01640000     -71.06060000
S      -43.06730000     -35.52290000     -74.63780000
S      -44.26620000     -37.69790000     -72.60760000
H      -45.19470000     -37.68270000     -70.29180000
