40
Properties=species:S:1:pos:R:3 #=T CELL(abcABC):=T 1.889726e+02=T 90.00000=T Traj:=T positionsangstrom=T Step:=T 0=T Bead:=T pbc="F F F"
C      -49.01950000     -31.99560000     -69.54810000
C      -47.70670000     -31.77060000     -69.09420000
C      -46.77060000     -31.06640000     -69.91040000
C      -47.11650000     -30.52400000     -71.14460000
C      -48.45340000     -30.69450000     -71.54860000
C      -49.31340000     -31.43670000     -70.76580000
H      -49.75990000     -32.55040000     -68.95560000
H      -45.75840000     -31.05210000     -69.54200000
H      -48.75300000     -30.27750000     -72.47520000
H      -50.27920000     -31.45610000     -71.20750000
C      -46.20630000     -29.69490000     -71.99340000
H      -46.42960000     -28.61480000     -71.72980000
H      -46.54160000     -29.90310000     -73.03260000
C      -47.25170000     -32.43420000     -67.79490000
H      -46.26080000     -32.13460000     -67.48270000
H      -48.01750000     -32.37440000     -67.03930000
S      -44.41020000     -29.93580000     -71.70930000
S      -47.36470000     -34.30570000     -68.12330000
C      -44.10840000     -31.62760000     -72.23060000
H      -44.95110000     -32.26970000     -71.96000000
H      -44.00050000     -31.67200000     -73.35070000
C      -46.68990000     -34.66230000     -69.82620000
H      -47.18570000     -34.04730000     -70.57990000
H      -46.93270000     -35.71480000     -69.96920000
C      -45.15840000     -34.51690000     -69.95590000
H      -44.77910000     -33.47030000     -70.06760000
H      -44.58620000     -34.76130000     -69.04870000
C      -42.91510000     -32.36550000     -71.57250000
H      -43.04080000     -32.41590000     -70.47870000
H      -41.94880000     -31.87500000     -71.83620000
C      -42.77540000     -33.73220000     -72.31890000
C      -42.00530000     -33.80190000     -73.44070000
C      -43.56430000     -34.93150000     -72.07150000
H      -41.18160000     -33.13580000     -73.57330000
C      -43.32500000     -35.89300000     -73.11840000
C      -44.60330000     -35.42280000     -71.14730000
C      -45.12460000     -36.65440000     -71.52460000
S      -42.30280000     -35.32280000     -74.29990000
S      -44.34820000     -37.32870000     -73.01590000
H      -45.89150000     -37.14640000     -71.06610000
