40
Properties=species:S:1:pos:R:3 #=T CELL(abcABC):=T 1.889726e+02=T 90.00000=T Traj:=T positionsangstrom=T Step:=T 0=T Bead:=T pbc="F F F"
C      -48.99380000     -31.93210000     -69.60300000
C      -47.56850000     -31.87790000     -69.33210000
C      -46.74650000     -31.09810000     -70.20130000
C      -47.30270000     -30.50220000     -71.36300000
C      -48.64480000     -30.62070000     -71.62080000
C      -49.49880000     -31.21570000     -70.66080000
H      -49.67470000     -32.48790000     -68.91160000
H      -45.68950000     -31.02770000     -70.10200000
H      -49.02630000     -30.15850000     -72.51480000
H      -50.55000000     -31.05240000     -70.75400000
C      -46.53190000     -29.77320000     -72.39490000
H      -46.96950000     -28.81920000     -72.59320000
H      -46.68380000     -30.23270000     -73.34250000
C      -46.92890000     -32.64770000     -68.16580000
H      -45.86080000     -32.58930000     -68.10110000
H      -47.23880000     -32.10450000     -67.25800000
S      -44.66520000     -29.81860000     -72.11230000
S      -47.44880000     -34.36520000     -68.08320000
C      -44.33150000     -31.55570000     -72.60560000
H      -45.28110000     -32.05160000     -72.79560000
H      -43.69630000     -31.41130000     -73.51560000
C      -46.58940000     -35.33350000     -69.41580000
H      -47.43090000     -35.87360000     -69.94290000
H      -46.03420000     -36.07980000     -68.95550000
C      -45.78320000     -34.61270000     -70.49400000
H      -46.47240000     -34.03920000     -71.15110000
H      -45.09400000     -33.95550000     -69.99460000
C      -43.46750000     -32.26660000     -71.54490000
H      -43.92630000     -32.31250000     -70.56830000
H      -42.57870000     -31.63430000     -71.44840000
C      -43.05790000     -33.60830000     -72.06440000
C      -41.87950000     -33.67820000     -72.75390000
C      -43.75220000     -34.84200000     -72.03300000
H      -41.08550000     -32.89350000     -72.95820000
C      -43.09110000     -35.80300000     -72.83250000
C      -44.89640000     -35.42180000     -71.40590000
C      -45.03230000     -36.79420000     -71.64790000
S      -41.66320000     -35.18610000     -73.64310000
S      -43.81140000     -37.34490000     -72.79230000
H      -45.94380000     -37.54550000     -71.45030000
