40
Properties=species:S:1:pos:R:3 #=T CELL(abcABC):=T 1.889726e+02=T 90.00000=T Traj:=T positionsangstrom=T Step:=T 0=T Bead:=T pbc="F F F"
C      -47.90440000     -30.52120000     -69.88360000
C      -48.09530000     -31.93040000     -69.92810000
C      -48.35330000     -32.65350000     -71.15740000
C      -48.48840000     -31.97400000     -72.34900000
C      -48.12430000     -30.52350000     -72.29770000
C      -47.85800000     -29.86500000     -71.15700000
H      -47.87130000     -30.02070000     -68.89950000
H      -48.32270000     -33.68740000     -71.21510000
H      -48.08940000     -29.98550000     -73.21570000
H      -47.44780000     -28.88090000     -71.28670000
C      -48.66020000     -32.57690000     -73.72240000
H      -48.71000000     -31.78270000     -74.46380000
H      -49.62300000     -33.07840000     -73.76910000
C      -48.14620000     -32.75710000     -68.64020000
H      -48.93250000     -32.38810000     -67.95750000
H      -48.29650000     -33.77430000     -68.82590000
S      -47.65960000     -34.04610000     -74.20290000
S      -46.60240000     -32.63010000     -67.61340000
C      -46.00940000     -33.84490000     -73.59460000
H      -45.35610000     -33.59890000     -74.42570000
H      -46.07070000     -33.06330000     -72.91440000
C      -45.25490000     -32.31770000     -68.82250000
H      -44.34050000     -32.21750000     -68.21570000
H      -45.41090000     -31.35910000     -69.37310000
C      -45.03400000     -33.55080000     -69.71220000
H      -45.14430000     -34.40580000     -69.05970000
H      -45.86600000     -33.69140000     -70.44640000
C      -45.48670000     -35.15270000     -72.88890000
H      -45.77240000     -36.00410000     -73.53940000
H      -46.07150000     -35.29290000     -71.98810000
C      -43.98110000     -35.15430000     -72.72830000
C      -43.02220000     -35.72990000     -73.52910000
C      -43.32580000     -34.54970000     -71.48310000
H      -43.17810000     -36.21680000     -74.47590000
C      -41.91670000     -34.74300000     -71.60010000
C      -43.65290000     -33.67470000     -70.36190000
C      -42.55180000     -33.24050000     -69.71000000
S      -41.39600000     -35.56110000     -72.95970000
S      -41.02580000     -33.85800000     -70.36390000
H      -42.43530000     -32.51690000     -68.89260000
