40
Properties=species:S:1:pos:R:3 #=T CELL(abcABC):=T 1.889726e+02=T 90.00000=T Traj:=T positionsangstrom=T Step:=T 0=T Bead:=T pbc="F F F"
C      -49.08990000     -32.12090000     -69.68070000
C      -47.73080000     -31.97010000     -69.42550000
C      -46.94050000     -31.23010000     -70.24820000
C      -47.41160000     -30.52790000     -71.36510000
C      -48.73620000     -30.68950000     -71.67140000
C      -49.57420000     -31.55050000     -70.85850000
H      -49.71440000     -32.64520000     -68.98400000
H      -45.86180000     -31.28080000     -70.19140000
H      -49.10870000     -30.24560000     -72.55790000
H      -50.63300000     -31.61750000     -71.10820000
C      -46.56610000     -29.67620000     -72.27470000
H      -46.92680000     -28.66450000     -72.27540000
H      -46.69370000     -29.94280000     -73.34800000
C      -47.17960000     -32.60100000     -68.22320000
H      -46.12060000     -32.32960000     -67.90200000
H      -47.86520000     -32.32560000     -67.35190000
S      -44.77360000     -29.83000000     -72.09380000
S      -47.36980000     -34.44770000     -68.29900000
C      -44.42460000     -31.56300000     -72.52260000
H      -45.36130000     -32.19360000     -72.58240000
H      -43.96830000     -31.60100000     -73.55580000
C      -45.75140000     -34.89060000     -69.20420000
H      -45.62820000     -35.94340000     -69.14080000
H      -44.95030000     -34.33500000     -68.68170000
C      -45.87920000     -34.52560000     -70.66230000
H      -46.87180000     -34.86260000     -70.97260000
H      -45.69430000     -33.46820000     -70.76160000
C      -43.44880000     -32.20960000     -71.48210000
H      -43.95460000     -32.24540000     -70.52460000
H      -42.62340000     -31.49800000     -71.19740000
C      -42.94620000     -33.56310000     -71.97550000
C      -41.83090000     -33.65350000     -72.81640000
C      -43.62980000     -34.82890000     -71.89890000
H      -41.36920000     -32.77040000     -73.30330000
C      -42.96530000     -35.87780000     -72.59460000
C      -44.92720000     -35.27990000     -71.48230000
C      -45.21260000     -36.55660000     -71.90490000
S      -41.49500000     -35.23390000     -73.44000000
S      -43.88530000     -37.33870000     -72.75070000
H      -46.18450000     -37.19720000     -71.62090000
