40
Properties=species:S:1:pos:R:3 #=T CELL(abcABC):=T 1.889726e+02=T 90.00000=T Traj:=T positionsangstrom=T Step:=T 0=T Bead:=T pbc="F F F"
C      -49.30100000     -32.55920000     -70.05670000
C      -48.11440000     -32.11790000     -69.40320000
C      -47.25740000     -31.22460000     -70.00840000
C      -47.60050000     -30.75090000     -71.28900000
C      -48.75440000     -31.22710000     -71.97750000
C      -49.54980000     -32.20080000     -71.34560000
H      -49.96410000     -33.30580000     -69.62540000
H      -46.37700000     -30.88770000     -69.50700000
H      -48.90110000     -30.79420000     -72.92380000
H      -50.36930000     -32.61200000     -71.92020000
C      -46.80050000     -29.71610000     -72.04680000
H      -47.10930000     -28.75960000     -71.59730000
H      -46.98920000     -29.80820000     -73.08980000
C      -47.71890000     -32.73950000     -68.08700000
H      -47.08330000     -32.07250000     -67.56980000
H      -48.63380000     -32.95240000     -67.49140000
S      -44.91640000     -29.70530000     -71.84270000
S      -46.88900000     -34.41430000     -68.35930000
C      -44.43750000     -31.44180000     -72.41820000
H      -45.28500000     -32.11630000     -72.44910000
H      -43.92780000     -31.29830000     -73.42870000
C      -45.68580000     -34.07750000     -69.64150000
H      -44.69370000     -34.58220000     -69.47000000
H      -45.46290000     -33.00680000     -69.58350000
C      -46.12330000     -34.48410000     -71.06080000
H      -46.96600000     -35.19450000     -70.92100000
H      -46.49930000     -33.66420000     -71.67670000
C      -43.48040000     -32.13260000     -71.49940000
H      -43.91240000     -32.11000000     -70.57720000
H      -42.60060000     -31.50440000     -71.29460000
C      -42.99380000     -33.44360000     -72.05220000
C      -41.68690000     -33.59570000     -72.42900000
C      -43.67940000     -34.74180000     -72.07430000
H      -40.95300000     -32.81660000     -72.25580000
C      -42.85980000     -35.75100000     -72.57570000
C      -44.98870000     -35.27520000     -71.73600000
C      -45.08340000     -36.60990000     -72.00170000
S      -41.29240000     -35.20080000     -73.04270000
S      -43.65880000     -37.25400000     -72.77810000
H      -45.91370000     -37.22340000     -71.69630000
