40
Properties=species:S:1:pos:R:3 #=T CELL(abcABC):=T 1.889726e+02=T 90.00000=T Traj:=T positionsangstrom=T Step:=T 0=T Bead:=T pbc="F F F"
C      -49.04020000     -33.07460000     -70.63590000
C      -48.18590000     -32.27680000     -69.94280000
C      -47.42140000     -31.31450000     -70.58920000
C      -47.55980000     -31.14360000     -71.93620000
C      -48.48320000     -31.89350000     -72.68900000
C      -49.23240000     -32.84440000     -72.04910000
H      -49.73820000     -33.78250000     -70.23600000
H      -46.72890000     -30.73290000     -70.02840000
H      -48.60820000     -31.73950000     -73.72500000
H      -50.09700000     -33.29620000     -72.58320000
C      -46.89970000     -29.87700000     -72.56010000
H      -47.26890000     -28.96010000     -72.11680000
H      -47.20420000     -29.95140000     -73.56580000
C      -47.96000000     -32.42250000     -68.49980000
H      -47.26740000     -31.74810000     -68.11420000
H      -48.89200000     -32.42750000     -67.89720000
S      -45.03670000     -29.57380000     -72.50630000
S      -47.49120000     -34.22110000     -68.07410000
C      -44.26560000     -31.31420000     -72.62260000
H      -44.85240000     -31.92070000     -73.18510000
H      -43.41680000     -31.16760000     -73.29320000
C      -45.77290000     -34.53990000     -68.84080000
H      -45.42460000     -35.44300000     -68.30430000
H      -45.21780000     -33.67490000     -68.62360000
C      -45.89090000     -34.80680000     -70.35780000
H      -46.73980000     -35.46990000     -70.35670000
H      -46.19560000     -33.88710000     -70.89690000
C      -43.89650000     -32.08730000     -71.34160000
H      -44.85540000     -32.32130000     -70.86720000
H      -43.39390000     -31.39600000     -70.56470000
C      -43.09120000     -33.30400000     -71.64260000
C      -41.89520000     -33.17510000     -72.27410000
C      -43.65330000     -34.63290000     -71.66120000
H      -41.27700000     -32.18820000     -72.55320000
C      -42.69900000     -35.49580000     -72.30610000
C      -44.74700000     -35.42910000     -71.10640000
C      -44.66430000     -36.78010000     -71.37310000
S      -41.26340000     -34.69240000     -72.81270000
S      -43.22300000     -37.12200000     -72.32700000
H      -45.29010000     -37.62490000     -71.15060000
