40
Properties=species:S:1:pos:R:3 #=T CELL(abcABC):=T 1.889726e+02=T 90.00000=T Traj:=T positionsangstrom=T Step:=T 0=T Bead:=T pbc="F F F"
C      -47.99600000     -30.63690000     -69.96400000
C      -48.12460000     -32.07470000     -69.95000000
C      -48.36350000     -32.68870000     -71.12970000
C      -48.44190000     -32.03470000     -72.34770000
C      -48.17820000     -30.61270000     -72.38490000
C      -47.93340000     -29.94120000     -71.18290000
H      -47.78280000     -30.22210000     -68.99220000
H      -48.56060000     -33.77230000     -71.21180000
H      -48.16220000     -29.98790000     -73.29620000
H      -47.91840000     -28.86800000     -71.16240000
C      -48.79180000     -32.74190000     -73.68410000
H      -48.63580000     -31.92230000     -74.37710000
H      -49.79240000     -33.09960000     -73.78190000
C      -48.09360000     -32.78590000     -68.67880000
H      -48.85480000     -32.49180000     -68.01250000
H      -48.30460000     -33.87660000     -68.85610000
S      -47.70510000     -34.12160000     -74.20340000
S      -46.53500000     -32.48270000     -67.59080000
C      -46.01550000     -33.77420000     -73.41170000
H      -45.44160000     -33.32590000     -74.20750000
H      -46.19270000     -32.90440000     -72.75840000
C      -45.14310000     -32.32750000     -68.83730000
H      -44.29580000     -32.14400000     -68.22300000
H      -45.31350000     -31.34490000     -69.32850000
C      -44.96550000     -33.59180000     -69.74720000
H      -45.40160000     -34.55070000     -69.32940000
H      -45.47490000     -33.36020000     -70.65420000
C      -45.51820000     -35.00680000     -72.75510000
H      -45.76780000     -35.90410000     -73.38760000
H      -46.04050000     -35.18970000     -71.74540000
C      -44.00280000     -34.98620000     -72.51090000
C      -43.25000000     -35.64150000     -73.45990000
C      -43.23420000     -34.43980000     -71.47320000
H      -43.68370000     -36.13680000     -74.34070000
C      -41.84270000     -34.50890000     -71.76280000
C      -43.53320000     -33.75990000     -70.21480000
C      -42.45010000     -33.54750000     -69.50450000
S      -41.51680000     -35.44430000     -73.24100000
S      -40.89000000     -33.91560000     -70.33910000
H      -42.34120000     -32.96950000     -68.58910000
