40
Properties=species:S:1:pos:R:3 #=T CELL(abcABC):=T 1.889726e+02=T 90.00000=T Traj:=T positionsangstrom=T Step:=T 0=T Bead:=T pbc="F F F"
C      -48.90340000     -33.00490000     -71.18510000
C      -48.16570000     -32.12290000     -70.35210000
C      -47.64450000     -30.97240000     -70.94940000
C      -47.67020000     -30.74610000     -72.35390000
C      -48.45780000     -31.63530000     -73.14540000
C      -49.00250000     -32.74810000     -72.52980000
H      -49.27830000     -33.93370000     -70.76900000
H      -46.97170000     -30.38840000     -70.31470000
H      -48.46710000     -31.48830000     -74.21010000
H      -49.61930000     -33.42510000     -73.12130000
C      -46.95860000     -29.59520000     -73.01660000
H      -47.13310000     -28.63690000     -72.50710000
H      -47.10850000     -29.53020000     -74.07070000
C      -48.01060000     -32.43650000     -68.87970000
H      -47.23400000     -31.90630000     -68.39340000
H      -48.99410000     -32.21810000     -68.30450000
S      -45.07140000     -29.71040000     -72.64520000
S      -47.73400000     -34.15980000     -68.50110000
C      -44.36920000     -31.42150000     -73.07860000
H      -44.78520000     -31.69860000     -74.06010000
H      -43.26940000     -31.25720000     -73.23470000
C      -46.02790000     -34.37310000     -69.04410000
H      -45.49320000     -34.97360000     -68.29620000
H      -45.43110000     -33.49650000     -69.20570000
C      -46.04810000     -35.08490000     -70.35720000
H      -46.67550000     -35.99800000     -70.13200000
H      -46.54420000     -34.48690000     -71.16620000
C      -44.47250000     -32.32140000     -71.88110000
H      -45.43170000     -32.85130000     -71.87820000
H      -44.48800000     -31.73590000     -70.95320000
C      -43.42740000     -33.37720000     -71.83460000
C      -42.09630000     -33.15260000     -72.19880000
C      -43.62800000     -34.82110000     -71.50060000
H      -41.72260000     -32.24030000     -72.58170000
C      -42.50600000     -35.60720000     -71.66880000
C      -44.70120000     -35.63010000     -70.84130000
C      -44.34120000     -36.91230000     -70.68470000
S      -41.13180000     -34.62220000     -72.23550000
S      -42.64280000     -37.27970000     -71.02170000
H      -44.85490000     -37.64860000     -70.12480000
