40
Properties=species:S:1:pos:R:3 #=T CELL(abcABC):=T 1.889726e+02=T 90.00000=T Traj:=T positionsangstrom=T Step:=T 0=T Bead:=T pbc="F F F"
C      -45.81530000     -36.99650000     -73.59320000
C      -46.52200000     -35.73460000     -73.51510000
C      -45.69980000     -34.58600000     -73.75060000
C      -44.32760000     -34.60350000     -74.00210000
C      -43.67430000     -35.87430000     -74.01850000
C      -44.43490000     -37.03410000     -73.80000000
H      -46.37590000     -37.91510000     -73.57680000
H      -46.28900000     -33.64990000     -73.68050000
H      -42.64200000     -35.96830000     -74.20780000
H      -43.89310000     -37.95970000     -73.78830000
C      -43.51410000     -33.39170000     -74.38700000
H      -44.09840000     -32.45330000     -74.26330000
H      -43.22670000     -33.56000000     -75.39610000
C      -47.93720000     -35.57960000     -73.02000000
H      -48.54740000     -35.24360000     -73.82880000
H      -48.32080000     -36.64690000     -72.94570000
S      -41.83700000     -33.39820000     -73.60040000
S      -48.29150000     -34.66400000     -71.45640000
C      -42.18820000     -32.61910000     -71.88280000
H      -41.43340000     -32.89750000     -71.22180000
H      -42.07190000     -31.52330000     -71.83960000
C      -47.36200000     -35.44670000     -70.06920000
H      -47.18250000     -36.52400000     -70.30380000
H      -48.03730000     -35.49230000     -69.16680000
C      -45.95790000     -34.69100000     -69.87770000
H      -45.35960000     -35.33900000     -69.21710000
H      -45.43990000     -34.60200000     -70.86780000
C      -43.53990000     -32.94730000     -71.25650000
H      -43.30560000     -33.79510000     -70.62310000
H      -44.27500000     -33.40170000     -72.02780000
C      -44.22560000     -31.85130000     -70.49150000
C      -43.93230000     -30.56690000     -70.49750000
C      -45.34620000     -32.14200000     -69.57640000
H      -43.05070000     -30.27860000     -71.11700000
C      -45.82500000     -30.95910000     -68.91570000
C      -46.07360000     -33.31970000     -69.24610000
C      -47.08960000     -33.05440000     -68.36900000
S      -44.94960000     -29.52470000     -69.42210000
S      -47.05250000     -31.36350000     -67.74320000
H      -47.87190000     -33.75470000     -67.84650000
