40
Properties=species:S:1:pos:R:3 #=T CELL(abcABC):=T 1.889726e+02=T 90.00000=T Traj:=T positionsangstrom=T Step:=T 0=T Bead:=T pbc="F F F"
C      -45.78360000     -36.95560000     -73.34040000
C      -46.43550000     -35.65990000     -73.23150000
C      -45.63870000     -34.54120000     -73.51640000
C      -44.31140000     -34.65870000     -74.01840000
C      -43.78320000     -35.91850000     -74.37200000
C      -44.52040000     -37.04160000     -73.92080000
H      -46.25870000     -37.80220000     -72.91830000
H      -46.08320000     -33.53700000     -73.23500000
H      -42.90210000     -36.03150000     -74.92170000
H      -44.12610000     -38.00050000     -74.24240000
C      -43.55240000     -33.38440000     -74.29270000
H      -44.16180000     -32.55640000     -73.90090000
H      -43.49500000     -33.17020000     -75.36510000
C      -47.90410000     -35.65850000     -72.92690000
H      -48.38030000     -35.18640000     -73.74810000
H      -48.25020000     -36.74130000     -72.89340000
S      -41.92480000     -33.42580000     -73.51420000
S      -48.18620000     -34.61070000     -71.40780000
C      -42.15230000     -32.44000000     -71.99770000
H      -41.29810000     -32.41960000     -71.40610000
H      -42.41140000     -31.35270000     -72.24960000
C      -47.18920000     -35.57000000     -70.20820000
H      -46.80910000     -36.47580000     -70.68800000
H      -47.84300000     -35.82320000     -69.36700000
C      -45.97370000     -34.72830000     -69.76210000
H      -45.42950000     -35.37140000     -69.07920000
H      -45.32800000     -34.69720000     -70.64260000
C      -43.34790000     -33.02370000     -71.16400000
H      -43.06120000     -33.72830000     -70.40260000
H      -44.14130000     -33.50700000     -71.83760000
C      -44.24130000     -31.95680000     -70.45000000
C      -43.90270000     -30.61120000     -70.48740000
C      -45.42110000     -32.17090000     -69.65490000
H      -43.04970000     -30.17280000     -71.07080000
C      -45.89970000     -30.99370000     -69.11810000
C      -46.18760000     -33.36350000     -69.22900000
C      -47.19590000     -32.92010000     -68.38290000
S      -44.88890000     -29.64030000     -69.47320000
S      -47.15050000     -31.23000000     -67.90120000
H      -48.05720000     -33.45140000     -67.91450000
