40
Properties=species:S:1:pos:R:3 #=T CELL(abcABC):=T 1.889726e+02=T 90.00000=T Traj:=T positionsangstrom=T Step:=T 0=T Bead:=T pbc="F F F"
C      -45.88310000     -36.98950000     -73.52050000
C      -46.43480000     -35.69720000     -73.27320000
C      -45.64790000     -34.57640000     -73.58410000
C      -44.36520000     -34.70840000     -74.09000000
C      -43.82420000     -35.96390000     -74.40230000
C      -44.57730000     -37.07510000     -74.06900000
H      -46.53350000     -37.88560000     -73.43030000
H      -46.23230000     -33.69520000     -73.58040000
H      -42.73960000     -36.02270000     -74.78340000
H      -44.06870000     -38.01330000     -74.27130000
C      -43.52360000     -33.50940000     -74.53930000
H      -44.10100000     -32.60090000     -74.45790000
H      -43.30070000     -33.62040000     -75.61280000
C      -47.90580000     -35.58670000     -72.73950000
H      -48.63750000     -35.17300000     -73.52390000
H      -48.30270000     -36.56440000     -72.48900000
S      -41.92840000     -33.49120000     -73.52170000
S      -48.17570000     -34.50550000     -71.25200000
C      -42.44150000     -32.32910000     -72.18720000
H      -41.47020000     -32.02460000     -71.65890000
H      -42.84010000     -31.47180000     -72.68920000
C      -47.23340000     -35.41800000     -70.01300000
H      -47.12870000     -36.50510000     -70.25540000
H      -47.88500000     -35.39180000     -69.10760000
C      -45.85680000     -34.79510000     -69.67010000
H      -45.37030000     -35.41330000     -68.91630000
H      -45.25430000     -34.78010000     -70.63180000
C      -43.32150000     -32.95520000     -71.10780000
H      -42.74820000     -33.61200000     -70.39910000
H      -44.02200000     -33.62490000     -71.56820000
C      -44.07080000     -31.91470000     -70.32870000
C      -43.76040000     -30.54720000     -70.33850000
C      -45.25330000     -32.13540000     -69.55540000
H      -42.98630000     -30.07540000     -70.90460000
C      -45.81280000     -31.00090000     -68.97170000
C      -45.99940000     -33.38480000     -69.20330000
C      -47.06410000     -33.07190000     -68.40860000
S      -44.94250000     -29.59300000     -69.42750000
S      -47.26830000     -31.28830000     -68.11350000
H      -47.77290000     -33.72450000     -67.86930000
