40
Properties=species:S:1:pos:R:3 #=T CELL(abcABC):=T 1.889726e+02=T 90.00000=T Traj:=T positionsangstrom=T Step:=T 0=T Bead:=T pbc="F F F"
C      -44.46120000     -29.10180000     -70.52570000
C      -44.30140000     -30.00650000     -71.57880000
C      -43.39040000     -31.11750000     -71.56550000
C      -42.63120000     -31.21350000     -70.42130000
C      -42.77090000     -30.30500000     -69.34840000
C      -43.61430000     -29.20100000     -69.40200000
H      -45.07370000     -28.22140000     -70.63980000
H      -43.50510000     -31.86630000     -72.37570000
H      -42.02580000     -30.48010000     -68.56000000
H      -43.73150000     -28.50830000     -68.57830000
C      -41.40650000     -32.12830000     -70.32690000
H      -41.09330000     -32.24200000     -69.23140000
H      -40.52480000     -31.72290000     -70.83680000
C      -45.22520000     -29.86350000     -72.75510000
H      -45.10600000     -28.81750000     -73.00340000
H      -44.94880000     -30.35460000     -73.69200000
S      -41.55310000     -33.71300000     -71.25350000
S      -47.02240000     -30.17450000     -72.33450000
C      -43.26560000     -34.40020000     -70.83350000
H      -43.12340000     -35.21980000     -70.14680000
H      -43.79310000     -33.56190000     -70.36250000
C      -47.10550000     -31.88460000     -71.67780000
H      -48.13690000     -31.90510000     -71.17150000
H      -46.45040000     -32.10840000     -70.86790000
C      -46.90890000     -33.01690000     -72.67590000
H      -47.29090000     -32.78370000     -73.67900000
H      -45.80900000     -33.04300000     -72.84840000
C      -44.08650000     -34.80070000     -72.05660000
H      -43.47230000     -35.37600000     -72.69520000
H      -44.43990000     -33.96920000     -72.65280000
C      -45.14710000     -35.70050000     -71.49520000
C      -44.91800000     -37.00910000     -71.01390000
C      -46.54140000     -35.43940000     -71.63380000
H      -43.89980000     -37.50710000     -70.99710000
C      -47.34150000     -36.42390000     -71.08600000
C      -47.38150000     -34.36230000     -72.16090000
C      -48.69890000     -34.71410000     -72.05060000
S      -46.41830000     -37.81480000     -70.57090000
S      -49.03340000     -36.23900000     -71.28450000
H      -49.53510000     -34.05880000     -72.38600000
