40
Properties=species:S:1:pos:R:3 #=T CELL(abcABC):=T 1.889726e+02=T 90.00000=T Traj:=T positionsangstrom=T Step:=T 0=T Bead:=T pbc="F F F"
C      -41.03040000     -33.57260000     -71.21920000
C      -42.17850000     -33.47870000     -72.07790000
C      -43.24360000     -34.34910000     -71.84700000
C      -43.17310000     -35.26260000     -70.73430000
C      -41.97830000     -35.30310000     -69.89080000
C      -40.95690000     -34.48590000     -70.18500000
H      -40.20650000     -32.90110000     -71.41160000
H      -44.12410000     -34.12800000     -72.50860000
H      -41.84460000     -35.98500000     -69.10910000
H      -40.04470000     -34.46200000     -69.59670000
C      -44.38850000     -36.13630000     -70.43060000
H      -44.19800000     -37.22370000     -70.16590000
H      -45.14300000     -36.12720000     -71.31620000
C      -42.22430000     -32.43830000     -73.19680000
H      -41.62590000     -31.51610000     -73.00430000
H      -41.64110000     -32.87380000     -73.98280000
S      -45.11180000     -35.43470000     -68.86520000
S      -43.83020000     -31.92730000     -73.80500000
C      -44.87690000     -33.57490000     -68.84070000
H      -44.27030000     -33.30210000     -67.96090000
H      -44.52320000     -33.34590000     -69.84010000
C      -44.35880000     -30.47530000     -72.67840000
H      -44.69570000     -29.66750000     -73.25830000
H      -43.46360000     -30.02550000     -72.23830000
C      -45.22120000     -30.92200000     -71.50710000
H      -44.57940000     -31.72420000     -70.93380000
H      -45.43440000     -30.17800000     -70.74070000
C      -46.18940000     -32.74640000     -68.59960000
H      -45.81900000     -31.70200000     -68.62690000
H      -46.48610000     -32.93960000     -67.58770000
C      -47.21680000     -32.97620000     -69.72380000
C      -48.20710000     -33.95760000     -69.55440000
C      -47.21490000     -32.55760000     -71.10560000
H      -48.58650000     -34.27120000     -68.64350000
C      -48.25130000     -33.15970000     -71.84970000
C      -46.49400000     -31.62280000     -71.95080000
C      -46.83970000     -31.74820000     -73.28560000
S      -49.14170000     -34.30780000     -70.99000000
S      -48.15140000     -32.87190000     -73.55930000
H      -46.42740000     -31.26370000     -74.13140000
