40
Properties=species:S:1:pos:R:3 #=T CELL(abcABC):=T 1.889726e+02=T 90.00000=T Traj:=T positionsangstrom=T Step:=T 0=T Bead:=T pbc="F F F"
C      -46.88300000     -34.07010000     -67.64960000
C      -45.52490000     -34.07600000     -68.00720000
C      -44.88180000     -32.85600000     -68.19460000
C      -45.71440000     -31.69470000     -68.26270000
C      -47.06280000     -31.73930000     -67.94640000
C      -47.61440000     -32.92790000     -67.48390000
H      -47.35740000     -35.00820000     -67.28550000
H      -43.80390000     -32.78250000     -68.40610000
H      -47.58020000     -30.77370000     -67.95030000
H      -48.58670000     -32.95350000     -67.07080000
C      -45.09210000     -30.27790000     -68.55040000
H      -44.84240000     -29.88210000     -67.57440000
H      -45.97100000     -29.66220000     -68.88340000
C      -44.96100000     -35.46840000     -68.31360000
H      -43.90540000     -35.50810000     -68.07820000
H      -45.48180000     -36.23290000     -67.70380000
S      -43.65170000     -30.29150000     -69.73730000
S      -45.07640000     -35.98140000     -70.11000000
C      -44.30490000     -31.18290000     -71.22310000
H      -45.38670000     -31.23910000     -71.07280000
H      -44.08010000     -30.48040000     -72.03270000
C      -46.71750000     -35.35880000     -70.63720000
H      -47.44030000     -35.32530000     -69.78960000
H      -47.08060000     -36.15720000     -71.27370000
C      -46.81260000     -34.01520000     -71.33630000
H      -47.87500000     -33.68990000     -71.26140000
H      -46.12270000     -33.29050000     -70.85170000
C      -43.74720000     -32.57130000     -71.43470000
H      -44.20630000     -33.29060000     -70.76040000
H      -42.72390000     -32.65850000     -71.37100000
C      -44.00180000     -33.14160000     -72.91110000
C      -43.10980000     -32.96980000     -73.92420000
C      -45.26110000     -33.73520000     -73.43100000
H      -42.12730000     -32.48190000     -73.83460000
C      -45.16540000     -33.98740000     -74.76580000
C      -46.46620000     -34.13950000     -72.82560000
C      -47.34160000     -34.62080000     -73.74520000
S      -43.65750000     -33.42200000     -75.51070000
S      -46.68890000     -34.72970000     -75.38110000
H      -48.31480000     -35.16280000     -73.63070000
