40
Properties=species:S:1:pos:R:3 #=T CELL(abcABC):=T 1.889726e+02=T 90.00000=T Traj:=T positionsangstrom=T Step:=T 0=T Bead:=T pbc="F F F"
C      -44.92450000     -29.69760000     -70.80590000
C      -44.42040000     -30.23480000     -72.01540000
C      -43.30570000     -31.13460000     -72.00910000
C      -42.54330000     -31.26910000     -70.78610000
C      -42.98550000     -30.59270000     -69.66520000
C      -44.20360000     -29.92790000     -69.62660000
H      -45.79990000     -29.09270000     -70.83800000
H      -43.02510000     -31.60080000     -72.93290000
H      -42.47430000     -30.74970000     -68.69750000
H      -44.62490000     -29.63640000     -68.67070000
C      -41.26610000     -32.08340000     -70.74330000
H      -40.90130000     -32.08880000     -69.68760000
H      -40.50120000     -31.68250000     -71.35870000
C      -45.01240000     -29.87870000     -73.31840000
H      -45.30390000     -28.83320000     -73.42750000
H      -44.20890000     -30.05290000     -74.04510000
S      -41.59860000     -33.75740000     -71.43580000
S      -46.55770000     -30.83340000     -73.82290000
C      -43.18740000     -34.27660000     -70.55870000
H      -42.98150000     -34.88130000     -69.65490000
H      -43.60520000     -33.35600000     -70.16930000
C      -47.23410000     -31.61560000     -72.33700000
H      -48.25270000     -31.85120000     -72.68550000
H      -47.30790000     -30.86520000     -71.51360000
C      -46.43930000     -32.80120000     -71.89530000
H      -45.84910000     -33.22920000     -72.71030000
H      -45.68070000     -32.49710000     -71.14430000
C      -44.02430000     -34.97260000     -71.62230000
H      -43.32910000     -35.70960000     -72.09860000
H      -44.18710000     -34.26220000     -72.41530000
C      -45.23920000     -35.69000000     -71.15460000
C      -45.14560000     -37.03110000     -70.77090000
C      -46.54930000     -35.18910000     -70.95870000
H      -44.21420000     -37.61570000     -70.76300000
C      -47.42180000     -36.21240000     -70.59840000
C      -47.21780000     -33.92550000     -71.32310000
C      -48.56340000     -34.07110000     -71.15750000
S      -46.63810000     -37.78340000     -70.22760000
S      -49.06330000     -35.61440000     -70.45140000
H      -49.29550000     -33.24950000     -71.21900000
