40
Properties=species:S:1:pos:R:3 #=T CELL(abcABC):=T 1.889726e+02=T 90.00000=T Traj:=T positionsangstrom=T Step:=T 0=T Bead:=T pbc="F F F"
C      -45.10530000     -29.75220000     -70.32620000
C      -44.50000000     -29.85800000     -71.57350000
C      -43.36620000     -30.69800000     -71.73590000
C      -42.89610000     -31.44820000     -70.65500000
C      -43.49040000     -31.23700000     -69.33310000
C      -44.62610000     -30.46300000     -69.20200000
H      -46.05640000     -29.19250000     -70.20550000
H      -42.80450000     -30.75910000     -72.74030000
H      -43.07130000     -31.72770000     -68.47540000
H      -44.99270000     -30.32160000     -68.19070000
C      -41.61250000     -32.16460000     -70.79320000
H      -41.17460000     -32.56440000     -69.91730000
H      -40.86770000     -31.58790000     -71.28180000
C      -45.09730000     -29.29770000     -72.74980000
H      -45.94090000     -28.60960000     -72.68410000
H      -44.38150000     -28.76090000     -73.35600000
S      -41.86590000     -33.54920000     -71.98380000
S      -45.75840000     -30.68950000     -73.90450000
C      -43.05190000     -34.54950000     -70.85080000
H      -42.67180000     -35.06870000     -69.87940000
H      -43.71810000     -33.78800000     -70.46390000
C      -46.83890000     -31.81690000     -72.89160000
H      -47.73180000     -32.05110000     -73.49220000
H      -47.26780000     -31.23550000     -72.03390000
C      -46.13710000     -33.11890000     -72.47460000
H      -45.83590000     -33.63170000     -73.40390000
H      -45.16300000     -32.81070000     -72.02890000
C      -43.85530000     -35.55880000     -71.69240000
H      -43.19860000     -36.51570000     -71.69860000
H      -44.11470000     -35.20610000     -72.74100000
C      -45.22460000     -36.04460000     -71.07590000
C      -45.37780000     -37.33320000     -70.70330000
C      -46.47430000     -35.38370000     -71.02490000
H      -44.63280000     -38.07580000     -70.77630000
C      -47.52180000     -36.08470000     -70.47300000
C      -46.93070000     -34.06700000     -71.57390000
C      -48.15940000     -33.79930000     -71.12520000
S      -47.04390000     -37.73540000     -70.10100000
S      -48.94710000     -35.12510000     -70.33640000
H      -48.69240000     -32.95440000     -71.33170000
