40
Properties=species:S:1:pos:R:3 #=T CELL(abcABC):=T 1.889726e+02=T 90.00000=T Traj:=T positionsangstrom=T Step:=T 0=T Bead:=T pbc="F F F"
C      -46.35570000     -37.20830000     -72.49840000
C      -47.03760000     -36.00220000     -72.68740000
C      -46.46150000     -34.96180000     -73.47180000
C      -45.20370000     -35.11410000     -74.10710000
C      -44.51190000     -36.35850000     -73.83600000
C      -45.11170000     -37.38330000     -73.10760000
H      -46.87220000     -37.92660000     -71.95140000
H      -47.01190000     -33.98520000     -73.60720000
H      -43.57740000     -36.41350000     -74.33730000
H      -44.47110000     -38.23750000     -73.00690000
C      -44.53930000     -34.10350000     -75.02590000
H      -45.01560000     -33.19490000     -74.91390000
H      -44.56040000     -34.42020000     -76.06190000
C      -48.42770000     -35.85960000     -72.09880000
H      -49.13520000     -35.76500000     -73.01640000
H      -48.72650000     -36.86620000     -71.62780000
S      -42.78270000     -33.74690000     -74.56140000
S      -48.62990000     -34.36610000     -71.12970000
C      -42.99820000     -32.40100000     -73.23040000
H      -41.97190000     -32.12130000     -72.85350000
H      -43.42370000     -31.52880000     -73.69130000
C      -47.63900000     -34.56720000     -69.62920000
H      -47.81950000     -35.56810000     -69.21890000
H      -48.03030000     -33.91180000     -68.87880000
C      -46.09120000     -34.28840000     -69.68320000
H      -45.60780000     -35.07300000     -69.14720000
H      -45.84720000     -34.44320000     -70.75500000
C      -43.85360000     -32.86730000     -72.04110000
H      -43.34300000     -33.77120000     -71.71970000
H      -44.82600000     -33.20750000     -72.44700000
C      -43.99170000     -31.91600000     -70.92790000
C      -43.32660000     -30.73980000     -70.91480000
C      -44.82620000     -31.96120000     -69.71490000
H      -42.77630000     -30.33450000     -71.79880000
C      -44.67250000     -30.79380000     -68.95200000
C      -45.70780000     -32.92930000     -69.12840000
C      -46.18400000     -32.53800000     -67.93650000
S      -43.63400000     -29.63440000     -69.64170000
S      -45.52330000     -31.01410000     -67.35820000
H      -46.65040000     -33.15210000     -67.18910000
