40
Properties=species:S:1:pos:R:3 #=T CELL(abcABC):=T 1.889726e+02=T 90.00000=T Traj:=T positionsangstrom=T Step:=T 0=T Bead:=T pbc="F F F"
C      -46.35630000     -37.17850000     -72.24540000
C      -47.06280000     -35.97690000     -72.52280000
C      -46.54290000     -35.14210000     -73.51030000
C      -45.25820000     -35.30900000     -74.05390000
C      -44.51820000     -36.44610000     -73.70080000
C      -45.11520000     -37.36070000     -72.81620000
H      -46.74100000     -37.85320000     -71.49310000
H      -47.03290000     -34.26930000     -73.83760000
H      -43.50270000     -36.54050000     -74.22640000
H      -44.64600000     -38.32620000     -72.62890000
C      -44.71720000     -34.20010000     -75.02930000
H      -45.39170000     -33.27980000     -75.16040000
H      -44.80670000     -34.63780000     -76.05420000
C      -48.48010000     -35.80870000     -72.01720000
H      -49.12630000     -35.77440000     -72.86650000
H      -48.75980000     -36.66330000     -71.51280000
S      -42.99620000     -33.64830000     -74.61660000
S      -48.76100000     -34.26280000     -71.02180000
C      -43.29280000     -32.30440000     -73.40490000
H      -42.42100000     -31.68820000     -73.40380000
H      -44.18520000     -31.72600000     -73.76580000
C      -47.50590000     -34.65330000     -69.68410000
H      -47.45440000     -35.75480000     -69.60980000
H      -47.96430000     -34.15310000     -68.78480000
C      -46.15860000     -34.22700000     -70.01870000
H      -45.38610000     -35.01990000     -69.84770000
H      -46.04760000     -33.97110000     -71.06130000
C      -43.61950000     -32.84300000     -72.02750000
H      -42.87270000     -33.55810000     -71.61500000
H      -44.48760000     -33.50080000     -72.04140000
C      -43.82150000     -31.82490000     -70.97690000
C      -43.20310000     -30.61030000     -71.01000000
C      -44.63050000     -31.98400000     -69.78770000
H      -42.54630000     -30.26240000     -71.77870000
C      -44.54110000     -30.88050000     -68.92890000
C      -45.60460000     -33.00440000     -69.26070000
C      -46.05220000     -32.64030000     -68.04790000
S      -43.44020000     -29.69490000     -69.48120000
S      -45.52740000     -30.99820000     -67.51980000
H      -46.83940000     -33.15980000     -67.55930000
