40
Properties=species:S:1:pos:R:3 #=T CELL(abcABC):=T 1.889726e+02=T 90.00000=T Traj:=T positionsangstrom=T Step:=T 0=T Bead:=T pbc="F F F"
C      -41.10480000     -32.27860000     -70.67310000
C      -42.30760000     -32.19550000     -71.45530000
C      -43.21610000     -33.27650000     -71.46280000
C      -43.03630000     -34.43940000     -70.76480000
C      -41.73120000     -34.55790000     -70.15240000
C      -40.88840000     -33.47570000     -70.02150000
H      -40.39140000     -31.48110000     -70.54060000
H      -44.13800000     -33.25600000     -72.03490000
H      -41.53550000     -35.57180000     -69.64050000
H      -39.96570000     -33.54310000     -69.45470000
C      -44.11530000     -35.49910000     -70.68350000
H      -43.91330000     -36.46160000     -71.05360000
H      -44.99840000     -35.21570000     -71.21600000
C      -42.50650000     -31.13580000     -72.52650000
H      -42.03080000     -30.17160000     -72.38660000
H      -42.07520000     -31.43950000     -73.48270000
S      -44.77060000     -35.75570000     -68.91670000
S      -44.22510000     -30.72890000     -73.22030000
C      -45.31340000     -34.06970000     -68.31220000
H      -45.29050000     -34.08100000     -67.18170000
H      -44.49270000     -33.38580000     -68.54340000
C      -45.24510000     -29.94570000     -71.90520000
H      -45.91850000     -29.28690000     -72.50250000
H      -44.62100000     -29.28740000     -71.22560000
C      -46.05040000     -30.94290000     -71.05680000
H      -45.23880000     -31.61700000     -70.63920000
H      -46.65650000     -30.49860000     -70.20430000
C      -46.76980000     -33.65430000     -68.75160000
H      -46.84350000     -32.56060000     -68.60200000
H      -47.39150000     -34.09470000     -67.98700000
C      -47.17140000     -34.08430000     -70.14400000
C      -47.63730000     -35.38360000     -70.31940000
C      -47.16430000     -33.33180000     -71.39210000
H      -47.71790000     -36.16600000     -69.52030000
C      -47.73240000     -34.16470000     -72.35220000
C      -46.86940000     -32.00980000     -71.91440000
C      -47.18760000     -31.92480000     -73.25780000
S      -48.19050000     -35.74270000     -71.91390000
S      -48.06680000     -33.35320000     -73.89960000
H      -47.26450000     -31.03840000     -73.83920000
