40
Properties=species:S:1:pos:R:3 #=T CELL(abcABC):=T 1.889726e+02=T 90.00000=T Traj:=T positionsangstrom=T Step:=T 0=T Bead:=T pbc="F F F"
C      -47.00720000     -33.90340000     -67.64230000
C      -45.69210000     -34.03370000     -68.07460000
C      -44.98520000     -32.88190000     -68.44550000
C      -45.52010000     -31.62790000     -68.29550000
C      -46.85940000     -31.54800000     -67.88730000
C      -47.67270000     -32.66040000     -67.66800000
H      -47.53870000     -34.81460000     -67.47050000
H      -44.07770000     -33.13470000     -68.90450000
H      -47.12770000     -30.51870000     -67.77440000
H      -48.71260000     -32.39170000     -67.45510000
C      -44.87140000     -30.33900000     -68.70340000
H      -44.69950000     -29.62600000     -67.90830000
H      -45.53460000     -29.85730000     -69.41130000
C      -45.11510000     -35.47470000     -68.26370000
H      -44.08710000     -35.50570000     -67.90340000
H      -45.72470000     -36.20350000     -67.74840000
S      -43.26450000     -30.52660000     -69.57710000
S      -45.03610000     -36.04230000     -70.02260000
C      -43.92390000     -31.16800000     -71.20850000
H      -45.07220000     -30.87580000     -71.27590000
H      -43.46150000     -30.60160000     -71.99060000
C      -46.71930000     -35.55940000     -70.61790000
H      -47.45300000     -35.61240000     -69.78590000
H      -47.04230000     -36.31990000     -71.39010000
C      -46.73700000     -34.12210000     -71.26760000
H      -47.66720000     -33.64920000     -70.99210000
H      -45.97170000     -33.42180000     -70.83630000
C      -43.65100000     -32.67440000     -71.58170000
H      -44.02620000     -33.55710000     -70.88510000
H      -42.55900000     -32.87670000     -71.50100000
C      -44.06110000     -33.09040000     -73.01300000
C      -43.30540000     -32.74320000     -74.09970000
C      -45.21140000     -33.80060000     -73.36600000
H      -42.25070000     -32.39780000     -74.06480000
C      -45.35450000     -34.00700000     -74.79650000
C      -46.44320000     -34.18860000     -72.71360000
C      -47.33950000     -34.75710000     -73.56980000
S      -44.03640000     -33.24290000     -75.60470000
S      -46.85950000     -34.71060000     -75.26450000
H      -48.29790000     -35.11390000     -73.31160000
