40
Properties=species:S:1:pos:R:3 #=T CELL(abcABC):=T 1.889726e+02=T 90.00000=T Traj:=T positionsangstrom=T Step:=T 0=T Bead:=T pbc="F F F"
C      -41.23050000     -34.66520000     -70.61750000
C      -41.71820000     -33.38920000     -70.50120000
C      -42.15260000     -32.68810000     -71.69630000
C      -42.07460000     -33.22260000     -72.94970000
C      -41.57850000     -34.56230000     -73.03760000
C      -41.13640000     -35.26690000     -71.92610000
H      -40.92900000     -35.30880000     -69.76860000
H      -42.64710000     -31.70990000     -71.70510000
H      -41.32880000     -35.09300000     -73.96210000
H      -40.71680000     -36.25200000     -72.01980000
C      -42.45610000     -32.43480000     -74.09820000
H      -41.83950000     -32.77080000     -74.92590000
H      -42.18440000     -31.39340000     -73.71060000
C      -41.87280000     -32.73780000     -69.15740000
H      -41.01230000     -32.96460000     -68.53850000
H      -42.02950000     -31.63690000     -69.10950000
S      -44.17250000     -32.72460000     -74.84580000
S      -43.32350000     -33.40420000     -68.18830000
C      -45.42010000     -32.57950000     -73.41220000
H      -45.00280000     -31.90510000     -72.59340000
H      -46.29870000     -31.98430000     -73.77190000
C      -44.56830000     -33.86570000     -69.37960000
H      -45.16150000     -34.58480000     -68.83450000
H      -44.05660000     -34.43180000     -70.19440000
C      -45.39360000     -32.65700000     -69.81510000
H      -45.28940000     -31.81980000     -68.90600000
H      -45.04770000     -32.16600000     -70.77400000
C      -45.96610000     -33.93110000     -72.90780000
H      -45.47990000     -34.24880000     -71.97250000
H      -45.87970000     -34.71920000     -73.62500000
C      -47.36010000     -33.78560000     -72.47950000
C      -48.54260000     -34.02560000     -73.12450000
C      -47.65090000     -33.41000000     -71.06770000
H      -48.70600000     -34.27450000     -74.17200000
C      -48.99410000     -33.49500000     -70.75260000
C      -46.86420000     -32.98630000     -69.91050000
C      -47.61310000     -32.69490000     -68.81770000
S      -50.00300000     -33.83390000     -72.14570000
S      -49.34820000     -33.02990000     -69.07120000
H      -47.31710000     -32.39580000     -67.81360000
