40
Properties=species:S:1:pos:R:3 #=T CELL(abcABC):=T 1.889726e+02=T 90.00000=T Traj:=T positionsangstrom=T Step:=T 0=T Bead:=T pbc="F F F"
C      -41.31710000     -34.39850000     -70.87980000
C      -41.93460000     -33.17640000     -70.61710000
C      -42.41930000     -32.40090000     -71.68000000
C      -42.28080000     -32.80430000     -72.99960000
C      -41.71020000     -34.02040000     -73.24410000
C      -41.32170000     -34.82850000     -72.21020000
H      -41.03360000     -35.14530000     -70.09850000
H      -42.79880000     -31.42390000     -71.44470000
H      -41.44820000     -34.25580000     -74.31830000
H      -40.83370000     -35.73730000     -72.46170000
C      -42.81480000     -31.88970000     -74.09080000
H      -41.96280000     -31.77670000     -74.85450000
H      -43.06340000     -30.93250000     -73.62420000
C      -42.14730000     -32.77030000     -69.10750000
H      -41.21890000     -32.56300000     -68.62210000
H      -42.74050000     -31.83390000     -69.10980000
S      -44.21390000     -32.66770000     -74.99920000
S      -43.13740000     -34.09030000     -68.16410000
C      -45.53840000     -32.67370000     -73.78110000
H      -45.34030000     -31.85610000     -73.04140000
H      -46.48190000     -32.46140000     -74.26330000
C      -44.54960000     -34.29740000     -69.34780000
H      -45.27640000     -34.92170000     -68.83300000
H      -44.31060000     -34.84890000     -70.23390000
C      -45.31580000     -32.94930000     -69.52600000
H      -45.14160000     -32.27790000     -68.68340000
H      -44.96140000     -32.39100000     -70.47190000
C      -45.80820000     -33.91030000     -72.90380000
H      -45.08100000     -34.10470000     -72.11830000
H      -45.82720000     -34.78470000     -73.54830000
C      -47.20900000     -33.77920000     -72.27680000
C      -48.32300000     -34.06330000     -73.03740000
C      -47.50650000     -33.40880000     -70.88890000
H      -48.38780000     -34.41810000     -74.06670000
C      -48.86400000     -33.42850000     -70.68840000
C      -46.80490000     -33.03120000     -69.64930000
C      -47.63190000     -32.84800000     -68.55120000
S      -49.79630000     -33.83490000     -72.09490000
S      -49.29370000     -33.08900000     -69.02350000
H      -47.15800000     -32.47950000     -67.66670000
