40
Properties=species:S:1:pos:R:3 #=T CELL(abcABC):=T 1.889726e+02=T 90.00000=T Traj:=T positionsangstrom=T Step:=T 0=T Bead:=T pbc="F F F"
C      -41.26420000     -34.38420000     -70.98400000
C      -41.80280000     -33.14540000     -70.59290000
C      -42.48210000     -32.39010000     -71.63040000
C      -42.48830000     -32.77430000     -72.93510000
C      -41.84670000     -34.00490000     -73.26310000
C      -41.25270000     -34.83800000     -72.32680000
H      -40.67780000     -34.97630000     -70.26270000
H      -42.98070000     -31.43810000     -71.31450000
H      -41.96400000     -34.44610000     -74.27890000
H      -40.89430000     -35.78850000     -72.49290000
C      -42.97100000     -31.83180000     -73.93740000
H      -42.33290000     -31.73520000     -74.74220000
H      -43.16870000     -30.77270000     -73.62990000
C      -41.95420000     -32.77060000     -69.12680000
H      -40.96830000     -32.71020000     -68.60270000
H      -42.48380000     -31.80100000     -68.79540000
S      -44.37360000     -32.41840000     -74.99290000
S      -42.88250000     -34.13200000     -68.25350000
C      -45.74670000     -32.48950000     -73.69300000
H      -45.65860000     -31.58060000     -73.14760000
H      -46.75670000     -32.27970000     -74.21700000
C      -44.57220000     -34.31150000     -69.16700000
H      -45.10090000     -35.01970000     -68.49500000
H      -44.37080000     -34.68960000     -70.23370000
C      -45.36440000     -32.96500000     -69.33380000
H      -45.16290000     -32.23430000     -68.52440000
H      -44.99410000     -32.54400000     -70.22870000
C      -45.75430000     -33.76780000     -72.82440000
H      -44.94130000     -33.64320000     -72.06770000
H      -45.48190000     -34.63040000     -73.43240000
C      -47.12910000     -33.93930000     -72.21350000
C      -48.20800000     -34.20690000     -73.01250000
C      -47.43980000     -33.54030000     -70.82010000
H      -48.15480000     -34.43750000     -74.08000000
C      -48.81040000     -33.56500000     -70.74400000
C      -46.83970000     -33.19650000     -69.55720000
C      -47.73630000     -32.82120000     -68.57630000
S      -49.70010000     -34.09240000     -72.15080000
S      -49.40890000     -32.96950000     -69.20390000
H      -47.42180000     -32.55600000     -67.58710000
