40
Properties=species:S:1:pos:R:3 #=T CELL(abcABC):=T 1.889726e+02=T 90.00000=T Traj:=T positionsangstrom=T Step:=T 0=T Bead:=T pbc="F F F"
C      -41.22750000     -34.44730000     -71.06000000
C      -41.85930000     -33.24480000     -70.59910000
C      -42.39920000     -32.42500000     -71.55940000
C      -42.43760000     -32.76280000     -72.96310000
C      -41.81210000     -33.88650000     -73.33500000
C      -41.20040000     -34.67340000     -72.41630000
H      -40.84700000     -35.20490000     -70.40790000
H      -42.89220000     -31.52280000     -71.23490000
H      -41.66980000     -34.03490000     -74.36160000
H      -40.79590000     -35.66510000     -72.70200000
C      -42.91270000     -31.70990000     -73.89630000
H      -42.13460000     -31.34820000     -74.52610000
H      -43.21660000     -30.78040000     -73.26440000
C      -42.06330000     -32.88050000     -69.14420000
H      -41.10350000     -32.86580000     -68.67850000
H      -42.56580000     -31.99920000     -69.05150000
S      -44.43450000     -32.23060000     -74.94440000
S      -43.03780000     -34.15790000     -68.18290000
C      -45.84830000     -32.38900000     -73.72850000
H      -45.97270000     -31.47150000     -73.13120000
H      -46.65380000     -32.49450000     -74.43510000
C      -44.55240000     -34.35680000     -69.09680000
H      -45.07440000     -35.09470000     -68.50420000
H      -44.41780000     -34.84970000     -70.04740000
C      -45.36870000     -32.98080000     -69.34600000
H      -45.14020000     -32.28250000     -68.50100000
H      -44.92280000     -32.42820000     -70.23670000
C      -45.69300000     -33.64330000     -72.79810000
H      -44.94440000     -33.35990000     -72.03130000
H      -45.31960000     -34.47280000     -73.44500000
C      -47.04380000     -34.02910000     -72.18500000
C      -48.04030000     -34.49070000     -72.95470000
C      -47.48440000     -33.48600000     -70.86130000
H      -47.78290000     -34.82180000     -73.94380000
C      -48.86220000     -33.57670000     -70.78060000
C      -46.85780000     -33.07330000     -69.59700000
C      -47.80110000     -32.63670000     -68.67900000
S      -49.58380000     -34.30340000     -72.16950000
S      -49.39380000     -33.02330000     -69.20520000
H      -47.72990000     -32.28880000     -67.66290000
