40
Properties=species:S:1:pos:R:3 #=T CELL(abcABC):=T 1.889726e+02=T 90.00000=T Traj:=T positionsangstrom=T Step:=T 0=T Bead:=T pbc="F F F"
C      -41.18510000     -31.58110000     -71.43220000
C      -42.55220000     -31.57550000     -71.70030000
C      -43.29640000     -32.71080000     -71.55820000
C      -42.71690000     -33.90310000     -71.20320000
C      -41.30900000     -33.98280000     -71.04830000
C      -40.60190000     -32.79280000     -71.04400000
H      -40.62910000     -30.60080000     -71.37900000
H      -44.39250000     -32.70580000     -71.72740000
H      -40.73200000     -34.91000000     -70.77400000
H      -39.53680000     -32.86960000     -70.90370000
C      -43.66530000     -35.05370000     -71.09430000
H      -43.22480000     -36.01350000     -71.37720000
H      -44.55650000     -34.74650000     -71.55740000
C      -43.22870000     -30.28730000     -71.94420000
H      -43.66400000     -29.97050000     -70.97540000
H      -42.59970000     -29.40580000     -72.23650000
S      -44.11100000     -35.30720000     -69.25040000
S      -44.80080000     -30.48010000     -73.04710000
C      -44.84160000     -33.75230000     -68.56240000
H      -44.40870000     -33.77260000     -67.50660000
H      -44.21180000     -32.90340000     -69.01550000
C      -46.13450000     -30.25520000     -71.83670000
H      -46.98130000     -29.87510000     -72.40120000
H      -45.92320000     -29.35590000     -71.18480000
C      -46.50560000     -31.41590000     -70.94240000
H      -45.62920000     -31.68340000     -70.35750000
H      -47.24900000     -31.19550000     -70.14020000
C      -46.39180000     -33.80730000     -68.63670000
H      -46.87620000     -32.77940000     -68.61260000
H      -46.76230000     -34.32300000     -67.73070000
C      -46.97200000     -34.49280000     -69.87680000
C      -47.30850000     -35.79450000     -69.86810000
C      -47.28040000     -33.87850000     -71.18420000
H      -47.15090000     -36.51370000     -69.04790000
C      -47.85090000     -34.77080000     -72.09670000
C      -47.06880000     -32.56450000     -71.69540000
C      -47.47830000     -32.45340000     -73.03920000
S      -48.03500000     -36.38320000     -71.38970000
S      -48.13020000     -34.02020000     -73.64200000
H      -47.49590000     -31.57350000     -73.61540000
