40
Properties=species:S:1:pos:R:3 #=T CELL(abcABC):=T 1.889726e+02=T 90.00000=T Traj:=T positionsangstrom=T Step:=T 0=T Bead:=T pbc="F F F"
C      -41.22860000     -31.55880000     -71.54850000
C      -42.57820000     -31.57760000     -71.75300000
C      -43.33890000     -32.79280000     -71.63280000
C      -42.69780000     -33.94270000     -71.15640000
C      -41.27740000     -33.88270000     -70.96460000
C      -40.53330000     -32.76680000     -71.18370000
H      -40.66650000     -30.62550000     -71.79840000
H      -44.34990000     -32.87400000     -71.94020000
H      -40.68090000     -34.75040000     -70.72430000
H      -39.50030000     -32.80270000     -70.98890000
C      -43.39110000     -35.27060000     -70.91080000
H      -42.62310000     -36.07200000     -71.12980000
H      -44.22670000     -35.52930000     -71.59690000
C      -43.36170000     -30.28920000     -72.06410000
H      -43.51940000     -29.77540000     -71.13590000
H      -42.72010000     -29.57220000     -72.70720000
S      -44.00930000     -35.49220000     -69.23650000
S      -44.91760000     -30.28120000     -72.96960000
C      -44.76130000     -33.79910000     -68.93270000
H      -44.46320000     -33.33540000     -68.01740000
H      -44.51760000     -33.16330000     -69.73210000
C      -46.23740000     -29.96260000     -71.71070000
H      -47.08180000     -29.53050000     -72.20030000
H      -45.77130000     -29.25240000     -70.99810000
C      -46.63520000     -31.25600000     -70.95330000
H      -45.71210000     -31.57400000     -70.40700000
H      -47.31760000     -30.93130000     -70.14750000
C      -46.23480000     -33.82990000     -68.71630000
H      -46.50440000     -32.75530000     -68.84680000
H      -46.44300000     -34.17560000     -67.72870000
C      -46.99440000     -34.46610000     -69.87030000
C      -47.24430000     -35.78160000     -69.84190000
C      -47.25740000     -33.79920000     -71.15540000
H      -47.28050000     -36.32640000     -68.93990000
C      -47.75370000     -34.80110000     -72.01720000
C      -47.17360000     -32.49070000     -71.73230000
C      -47.70100000     -32.53980000     -73.02690000
S      -47.87810000     -36.40290000     -71.40440000
S      -48.29130000     -34.12830000     -73.49690000
H      -47.88240000     -31.69200000     -73.70310000
