40
Properties=species:S:1:pos:R:3 #=T CELL(abcABC):=T 1.889726e+02=T 90.00000=T Traj:=T positionsangstrom=T Step:=T 0=T Bead:=T pbc="F F F"
C      -47.87030000     -35.88400000     -72.27310000
C      -47.69070000     -34.55990000     -72.12530000
C      -46.92760000     -33.94830000     -73.14770000
C      -46.42230000     -34.67510000     -74.26420000
C      -46.51690000     -36.07250000     -74.33750000
C      -47.31260000     -36.65510000     -73.33690000
H      -48.40280000     -36.40080000     -71.46530000
H      -46.90120000     -32.88180000     -73.33790000
H      -46.15750000     -36.66840000     -75.15530000
H      -47.45090000     -37.71640000     -73.22660000
C      -45.67550000     -34.01210000     -75.36480000
H      -45.89220000     -32.91800000     -75.30770000
H      -45.93560000     -34.34730000     -76.37350000
C      -48.23330000     -33.81400000     -70.96300000
H      -47.77920000     -32.87620000     -70.97210000
H      -49.34160000     -33.68070000     -71.09840000
S      -43.80800000     -34.01110000     -75.17710000
S      -48.06320000     -34.71080000     -69.30280000
C      -43.58490000     -32.73910000     -73.87660000
H      -42.50500000     -32.42630000     -73.91760000
H      -44.37170000     -31.99090000     -74.21630000
C      -46.37820000     -35.52240000     -69.16220000
H      -46.47020000     -36.44860000     -69.71180000
H      -46.12560000     -35.64070000     -68.09210000
C      -45.16260000     -34.71240000     -69.79070000
H      -44.28940000     -35.38110000     -69.68270000
H      -45.36930000     -34.62640000     -70.90580000
C      -43.84770000     -33.17860000     -72.47980000
H      -43.09100000     -33.90530000     -72.27590000
H      -44.86640000     -33.59710000     -72.40150000
C      -43.71330000     -32.14490000     -71.39130000
C      -43.25340000     -30.85980000     -71.61640000
C      -44.05230000     -32.31210000     -69.96950000
H      -43.10230000     -30.51010000     -72.63240000
C      -43.80100000     -31.23490000     -69.18890000
C      -44.71270000     -33.38920000     -69.18650000
C      -44.90970000     -33.04800000     -67.82830000
S      -43.18100000     -29.87120000     -70.15870000
S      -44.22530000     -31.51530000     -67.51150000
H      -45.49590000     -33.55650000     -67.02860000
