40
Properties=species:S:1:pos:R:3 #=T CELL(abcABC):=T 1.889726e+02=T 90.00000=T Traj:=T positionsangstrom=T Step:=T 0=T Bead:=T pbc="F F F"
C      -45.70680000     -35.31050000     -68.02450000
C      -44.57000000     -35.56290000     -68.73730000
C      -43.60890000     -34.48280000     -68.88570000
C      -43.89060000     -33.21240000     -68.35790000
C      -45.07220000     -32.98040000     -67.66140000
C      -45.95050000     -34.03610000     -67.50540000
H      -46.46470000     -36.01990000     -67.95270000
H      -42.72480000     -34.73660000     -69.46070000
H      -45.12400000     -31.98220000     -67.20280000
H      -46.81220000     -33.94100000     -66.87560000
C      -42.88600000     -32.11420000     -68.53340000
H      -42.15420000     -32.53910000     -69.26430000
H      -42.37220000     -31.94690000     -67.60830000
C      -44.48830000     -36.94190000     -69.37610000
H      -44.01560000     -37.64770000     -68.72680000
H      -45.58150000     -37.17590000     -69.47300000
S      -43.62160000     -30.43280000     -69.10990000
S      -43.61150000     -36.97700000     -70.92360000
C      -44.25190000     -30.85220000     -70.80120000
H      -44.21000000     -29.93360000     -71.43260000
H      -43.46120000     -31.36910000     -71.27680000
C      -44.77350000     -36.26980000     -72.10650000
H      -45.59870000     -36.91620000     -72.23210000
H      -44.10300000     -36.28340000     -73.00360000
C      -45.32430000     -34.78510000     -71.77500000
H      -45.98920000     -34.74470000     -70.79840000
H      -44.44010000     -34.24730000     -71.48670000
C      -45.57780000     -31.56000000     -70.97070000
H      -46.37760000     -31.00660000     -70.38590000
H      -45.51940000     -32.65430000     -70.68810000
C      -45.99940000     -31.55160000     -72.40040000
C      -46.29980000     -30.39010000     -73.08930000
C      -46.31090000     -32.71560000     -73.14760000
H      -46.08100000     -29.39040000     -72.80290000
C      -47.01570000     -32.42740000     -74.31230000
C      -46.13150000     -34.14680000     -72.91590000
C      -46.75140000     -34.85120000     -73.92780000
S      -47.18780000     -30.69190000     -74.57660000
S      -47.39470000     -33.94300000     -75.24150000
H      -46.78340000     -35.90530000     -73.91960000
