40
Properties=species:S:1:pos:R:3 #=T CELL(abcABC):=T 1.889726e+02=T 90.00000=T Traj:=T positionsangstrom=T Step:=T 0=T Bead:=T pbc="F F F"
C      -48.36390000     -36.62450000     -72.31440000
C      -48.10330000     -35.31030000     -71.74610000
C      -47.67650000     -34.33790000     -72.65920000
C      -47.45200000     -34.57150000     -74.03470000
C      -47.65940000     -35.90400000     -74.57350000
C      -48.06760000     -36.89170000     -73.65180000
H      -48.74050000     -37.39460000     -71.67960000
H      -47.53230000     -33.39560000     -72.20760000
H      -47.49960000     -36.01390000     -75.55070000
H      -48.41680000     -37.87260000     -73.99250000
C      -46.92550000     -33.48020000     -74.90690000
H      -47.20830000     -32.42690000     -74.68300000
H      -47.28290000     -33.57850000     -75.96070000
C      -48.36600000     -34.94460000     -70.29110000
H      -48.46090000     -33.82160000     -70.15440000
H      -49.33750000     -35.52150000     -70.01680000
S      -45.05170000     -33.45260000     -74.82920000
S      -47.02590000     -35.50110000     -69.13710000
C      -44.76890000     -32.37640000     -73.39820000
H      -44.99680000     -31.31830000     -73.73800000
H      -45.41230000     -32.53120000     -72.58210000
C      -45.30180000     -35.59350000     -69.86070000
H      -45.36690000     -36.22710000     -70.70510000
H      -44.73520000     -35.91530000     -69.02450000
C      -44.74340000     -34.34860000     -70.53740000
H      -43.76520000     -34.64730000     -71.05090000
H      -45.43160000     -33.96890000     -71.35530000
C      -43.31290000     -32.59810000     -72.85720000
H      -42.70280000     -32.31720000     -73.70750000
H      -43.27470000     -33.68000000     -72.68520000
C      -43.01610000     -31.74050000     -71.53000000
C      -42.17980000     -30.62920000     -71.52340000
C      -43.60310000     -32.06370000     -70.25740000
H      -41.53080000     -30.31240000     -72.32160000
C      -43.25550000     -31.15250000     -69.26690000
C      -44.45570000     -33.05490000     -69.75180000
C      -44.83890000     -32.86300000     -68.45000000
S      -42.18000000     -29.92800000     -69.86460000
S      -44.14820000     -31.36870000     -67.78740000
H      -45.45160000     -33.41420000     -67.72060000
