40
Properties=species:S:1:pos:R:3 #=T CELL(abcABC):=T 1.889726e+02=T 90.00000=T Traj:=T positionsangstrom=T Step:=T 0=T Bead:=T pbc="F F F"
C      -47.83510000     -36.64080000     -71.93780000
C      -48.19400000     -35.35950000     -71.55020000
C      -47.93770000     -34.35150000     -72.49570000
C      -47.46850000     -34.57960000     -73.79690000
C      -47.22070000     -35.96320000     -74.16520000
C      -47.43300000     -36.97820000     -73.22310000
H      -47.89980000     -37.47910000     -71.22880000
H      -48.34900000     -33.36450000     -72.17480000
H      -46.94630000     -35.99040000     -75.24540000
H      -47.34810000     -37.95920000     -73.67020000
C      -47.23770000     -33.50140000     -74.83800000
H      -47.76410000     -32.59260000     -74.58200000
H      -47.66520000     -33.89100000     -75.74350000
C      -48.59860000     -35.15020000     -70.13610000
H      -49.15660000     -34.23550000     -70.05770000
H      -49.29010000     -35.89630000     -69.87490000
S      -45.49620000     -32.94540000     -75.09080000
S      -47.21920000     -35.17540000     -68.93380000
C      -45.23580000     -31.98390000     -73.59620000
H      -45.35430000     -30.90440000     -73.78800000
H      -45.91800000     -32.15130000     -72.79820000
C      -45.70430000     -35.57040000     -69.88380000
H      -45.85420000     -36.42480000     -70.56530000
H      -45.06880000     -36.09430000     -69.12880000
C      -45.04340000     -34.34570000     -70.52900000
H      -44.27040000     -34.74060000     -71.25870000
H      -45.80740000     -33.84180000     -71.12390000
C      -43.87590000     -32.26270000     -73.00850000
H      -43.18380000     -31.99660000     -73.83230000
H      -43.73190000     -33.35600000     -72.96800000
C      -43.52370000     -31.54740000     -71.74230000
C      -42.80410000     -30.38350000     -71.67730000
C      -43.65260000     -32.13510000     -70.40470000
H      -42.43580000     -29.83970000     -72.49960000
C      -42.88370000     -31.39340000     -69.49340000
C      -44.26070000     -33.31540000     -69.73760000
C      -44.03370000     -33.37030000     -68.41320000
S      -42.20820000     -30.01290000     -70.12410000
S      -43.05630000     -31.97150000     -67.86320000
H      -44.48520000     -34.08210000     -67.76840000
