40
Properties=species:S:1:pos:R:3 #=T CELL(abcABC):=T 1.889726e+02=T 90.00000=T Traj:=T positionsangstrom=T Step:=T 0=T Bead:=T pbc="F F F"
C      -50.02300000     -34.41310000     -70.33250000
C      -49.14760000     -33.64050000     -71.14980000
C      -48.32160000     -32.71660000     -70.51110000
C      -48.35270000     -32.46220000     -69.09930000
C      -49.20770000     -33.30580000     -68.35350000
C      -50.09580000     -34.16410000     -68.93660000
H      -50.58870000     -35.24940000     -70.71580000
H      -47.62400000     -32.19910000     -71.21520000
H      -49.45260000     -33.07110000     -67.30950000
H      -50.81650000     -34.65570000     -68.30830000
C      -47.40250000     -31.55010000     -68.43800000
H      -47.95160000     -31.18770000     -67.47060000
H      -47.34850000     -30.55160000     -68.92440000
C      -49.07070000     -33.92410000     -72.62970000
H      -48.56310000     -34.85690000     -72.75860000
H      -50.06780000     -33.87730000     -72.98300000
S      -45.82170000     -32.25320000     -67.92820000
S      -47.79050000     -32.94480000     -73.57500000
C      -45.10290000     -33.16880000     -69.32790000
H      -44.56860000     -33.97400000     -68.87430000
H      -45.92760000     -33.57320000     -69.93370000
C      -46.13860000     -33.88560000     -73.31190000
H      -46.08020000     -34.67260000     -74.04110000
H      -46.13160000     -34.31300000     -72.26560000
C      -45.03850000     -32.77170000     -73.66400000
H      -45.14700000     -32.54110000     -74.71240000
H      -45.26550000     -31.85710000     -73.06070000
C      -44.08110000     -32.28360000     -70.22720000
H      -43.60180000     -31.50250000     -69.56660000
H      -44.63940000     -31.76220000     -70.96540000
C      -43.00470000     -33.11540000     -70.88770000
C      -41.95850000     -33.49600000     -70.10670000
C      -42.88910000     -33.44260000     -72.27040000
H      -41.82810000     -33.34340000     -69.07760000
C      -41.69090000     -34.08930000     -72.50240000
C      -43.65170000     -33.37740000     -73.51280000
C      -43.00070000     -33.86870000     -74.60330000
S      -40.70980000     -34.29140000     -71.02210000
S      -41.43140000     -34.60570000     -74.16310000
H      -43.38040000     -33.83150000     -75.62090000
