40
Properties=species:S:1:pos:R:3 #=T CELL(abcABC):=T 1.889726e+02=T 90.00000=T Traj:=T positionsangstrom=T Step:=T 0=T Bead:=T pbc="F F F"
C      -47.95980000     -30.98330000     -72.05540000
C      -47.96800000     -31.45870000     -70.73530000
C      -46.92150000     -31.06310000     -69.88550000
C      -45.77610000     -30.40040000     -70.35690000
C      -45.83850000     -29.88730000     -71.66960000
C      -46.93760000     -30.16710000     -72.43900000
H      -48.70710000     -31.32910000     -72.74770000
H      -46.88000000     -31.39850000     -68.80210000
H      -45.05770000     -29.21340000     -71.98940000
H      -47.02430000     -29.61950000     -73.36930000
C      -44.82850000     -29.98120000     -69.28910000
H      -45.18530000     -30.28550000     -68.30130000
H      -44.69320000     -28.88940000     -69.12360000
C      -48.96990000     -32.44290000     -70.23150000
H      -48.57570000     -32.75360000     -69.27800000
H      -49.87730000     -31.86570000     -70.08320000
S      -43.08550000     -30.45580000     -69.50900000
S      -49.43330000     -33.67770000     -71.42610000
C      -43.32160000     -31.96280000     -70.57080000
H      -44.05550000     -31.62130000     -71.35360000
H      -42.34400000     -32.15150000     -71.05970000
C      -47.82540000     -34.30000000     -72.18670000
H      -47.39430000     -33.49800000     -72.81020000
H      -48.06780000     -35.08980000     -72.88510000
C      -46.82170000     -34.82360000     -71.14370000
H      -46.50880000     -33.98200000     -70.46220000
H      -47.13570000     -35.64430000     -70.48850000
C      -43.91970000     -33.21510000     -69.86860000
H      -45.04170000     -33.12870000     -69.99310000
H      -43.74410000     -33.38980000     -68.81160000
C      -43.45060000     -34.37910000     -70.68710000
C      -42.09390000     -34.64060000     -70.75620000
C      -44.19400000     -35.27720000     -71.61290000
H      -41.27300000     -34.30700000     -70.09770000
C      -43.42330000     -36.06520000     -72.43480000
C      -45.62010000     -35.42220000     -71.89970000
C      -45.78740000     -36.34120000     -72.89940000
S      -41.70360000     -35.92140000     -71.90840000
S      -44.30960000     -36.98970000     -73.61650000
H      -46.71760000     -36.82000000     -73.19560000
