40
Properties=species:S:1:pos:R:3 #=T CELL(abcABC):=T 1.889726e+02=T 90.00000=T Traj:=T positionsangstrom=T Step:=T 0=T Bead:=T pbc="F F F"
C      -49.10330000     -33.33320000     -70.84290000
C      -48.60360000     -33.73390000     -72.07770000
C      -47.88770000     -34.91190000     -72.23130000
C      -47.73530000     -35.75980000     -71.08920000
C      -48.42770000     -35.50740000     -69.90380000
C      -49.16930000     -34.32110000     -69.76510000
H      -49.65950000     -32.46740000     -70.69440000
H      -47.48610000     -35.16780000     -73.14340000
H      -48.16170000     -36.12620000     -69.05940000
H      -49.76770000     -34.16280000     -68.87250000
C      -46.78660000     -36.98210000     -71.29580000
H      -46.11410000     -36.91340000     -72.17840000
H      -47.46480000     -37.88600000     -71.31920000
C      -48.83550000     -32.80580000     -73.28750000
H      -48.59720000     -33.43890000     -74.22980000
H      -49.83290000     -32.45090000     -73.37410000
S      -45.71400000     -37.18070000     -69.74010000
S      -48.00550000     -31.21460000     -73.24150000
C      -44.26760000     -36.14390000     -70.04030000
H      -43.83970000     -36.02150000     -68.96450000
H      -43.59880000     -36.75700000     -70.65350000
C      -46.14260000     -31.40580000     -72.96460000
H      -45.76820000     -30.56080000     -73.31700000
H      -45.73100000     -32.21670000     -73.55710000
C      -45.80100000     -31.52450000     -71.52740000
H      -46.28490000     -30.67830000     -70.95610000
H      -46.18640000     -32.45950000     -71.21590000
C      -44.59900000     -34.70540000     -70.75180000
H      -45.34600000     -34.09650000     -70.14980000
H      -44.91080000     -34.90450000     -71.73940000
C      -43.37900000     -33.82680000     -70.87470000
C      -42.10400000     -34.29950000     -70.54920000
C      -43.37530000     -32.40060000     -71.14650000
H      -41.75780000     -35.38340000     -70.42420000
C      -42.01340000     -31.91210000     -71.17250000
C      -44.31920000     -31.36030000     -71.39890000
C      -43.77390000     -30.08090000     -71.59180000
S      -40.82260000     -33.07250000     -70.90620000
S      -42.03920000     -30.19180000     -71.55670000
H      -44.23440000     -29.18250000     -71.99970000
