40
Properties=species:S:1:pos:R:3 #=T CELL(abcABC):=T 1.889726e+02=T 90.00000=T Traj:=T positionsangstrom=T Step:=T 0=T Bead:=T pbc="F F F"
C      -49.43550000     -33.73260000     -70.50740000
C      -48.81910000     -33.70770000     -71.73630000
C      -47.99670000     -34.70810000     -72.15300000
C      -47.61600000     -35.71430000     -71.21260000
C      -48.06810000     -35.59830000     -69.84070000
C      -49.02320000     -34.62900000     -69.52220000
H      -50.24850000     -33.07250000     -70.20950000
H      -47.73070000     -34.69140000     -73.18360000
H      -47.65760000     -36.35980000     -69.09950000
H      -49.31470000     -34.42750000     -68.48570000
C      -46.82270000     -36.89030000     -71.71320000
H      -46.48920000     -36.70600000     -72.75000000
H      -47.56210000     -37.74670000     -71.77600000
C      -49.21460000     -32.46630000     -72.62100000
H      -49.21980000     -32.85440000     -73.70040000
H      -50.17510000     -32.08320000     -72.33550000
S      -45.44920000     -37.45470000     -70.65950000
S      -48.28390000     -30.90520000     -72.54640000
C      -44.15230000     -36.18140000     -71.15780000
H      -43.18400000     -36.52610000     -70.68730000
H      -44.02970000     -36.39840000     -72.24140000
C      -46.52520000     -31.39570000     -72.64060000
H      -45.98610000     -30.42820000     -72.97010000
H      -46.42390000     -32.11310000     -73.47220000
C      -45.80120000     -31.81370000     -71.33090000
H      -46.15420000     -31.15030000     -70.53410000
H      -46.16360000     -32.81170000     -71.11820000
C      -44.43570000     -34.67430000     -70.83100000
H      -44.71870000     -34.40380000     -69.79130000
H      -45.15350000     -34.36520000     -71.52660000
C      -43.13860000     -33.90760000     -71.02750000
C      -41.89490000     -34.32760000     -70.77320000
C      -43.25470000     -32.46790000     -71.18750000
H      -41.55330000     -35.31290000     -70.71210000
C      -42.04460000     -31.80310000     -71.07830000
C      -44.30700000     -31.51780000     -71.46230000
C      -43.80370000     -30.25250000     -71.55070000
S      -40.72210000     -32.94130000     -70.90330000
S      -42.06680000     -30.06760000     -71.38840000
H      -44.50760000     -29.45920000     -71.52280000
