40
Properties=species:S:1:pos:R:3 #=T CELL(abcABC):=T 1.889726e+02=T 90.00000=T Traj:=T positionsangstrom=T Step:=T 0=T Bead:=T pbc="F F F"
C      -49.36970000     -30.68780000     -71.20120000
C      -48.49570000     -31.76700000     -71.08740000
C      -47.24550000     -31.58480000     -70.54470000
C      -46.83030000     -30.32950000     -70.13670000
C      -47.64410000     -29.22790000     -70.35180000
C      -48.94030000     -29.44010000     -70.87180000
H      -50.42030000     -30.97250000     -71.39050000
H      -46.69490000     -32.47010000     -70.41980000
H      -47.42000000     -28.19030000     -70.11280000
H      -49.61160000     -28.56460000     -70.83800000
C      -45.53600000     -30.13380000     -69.43080000
H      -45.34320000     -30.91460000     -68.75390000
H      -45.55850000     -29.25130000     -68.75610000
C      -48.99600000     -33.16770000     -71.32330000
H      -48.62560000     -33.83530000     -70.52770000
H      -50.00570000     -33.19300000     -71.37400000
S      -44.12930000     -29.98550000     -70.54840000
S      -48.33930000     -33.69360000     -72.92530000
C      -43.84890000     -31.63000000     -71.25230000
H      -44.36790000     -31.85200000     -72.16230000
H      -42.83290000     -31.56110000     -71.58190000
C      -46.58830000     -34.26320000     -72.63810000
H      -45.84100000     -33.45260000     -72.54390000
H      -46.31180000     -34.76050000     -73.55280000
C      -46.41330000     -35.22450000     -71.50660000
H      -46.33060000     -34.74850000     -70.49460000
H      -47.25620000     -35.90410000     -71.37660000
C      -44.09790000     -32.86320000     -70.32320000
H      -45.17770000     -33.08140000     -70.19510000
H      -43.71350000     -32.64610000     -69.29740000
C      -43.32670000     -34.08550000     -70.81580000
C      -41.94320000     -34.06150000     -70.75890000
C      -43.85630000     -35.33240000     -71.25820000
H      -41.40000000     -33.27360000     -70.30070000
C      -42.71750000     -36.21490000     -71.61670000
C      -45.06270000     -35.92850000     -71.67370000
C      -44.87600000     -37.14160000     -72.21650000
S      -41.14720000     -35.50960000     -71.31520000
S      -43.23290000     -37.71020000     -72.27120000
H      -45.69990000     -37.69770000     -72.51790000
