40
Properties=species:S:1:pos:R:3 #=T CELL(abcABC):=T 1.889726e+02=T 90.00000=T Traj:=T positionsangstrom=T Step:=T 0=T Bead:=T pbc="F F F"
C      -49.03730000     -33.71600000     -70.41330000
C      -48.68130000     -33.71330000     -71.76280000
C      -47.91600000     -34.78780000     -72.28340000
C      -47.52770000     -35.82480000     -71.41730000
C      -48.02680000     -35.81340000     -70.12830000
C      -48.79580000     -34.81260000     -69.57420000
H      -49.68820000     -32.89900000     -70.13510000
H      -47.78510000     -34.75390000     -73.34030000
H      -47.77980000     -36.65760000     -69.39460000
H      -49.05120000     -34.62250000     -68.53210000
C      -46.70420000     -36.99270000     -71.93780000
H      -46.29220000     -36.81760000     -72.89880000
H      -47.34770000     -37.89980000     -71.96650000
C      -49.16340000     -32.63980000     -72.73380000
H      -48.86260000     -32.91480000     -73.75510000
H      -50.24210000     -32.55300000     -72.76710000
S      -45.31180000     -37.51270000     -70.83670000
S      -48.37290000     -30.96450000     -72.48170000
C      -44.00440000     -36.17470000     -70.91890000
H      -43.47220000     -36.12500000     -69.92720000
H      -43.27090000     -36.49270000     -71.66440000
C      -46.62020000     -31.50020000     -72.54550000
H      -46.05880000     -30.86960000     -73.21440000
H      -46.56690000     -32.49170000     -72.92180000
C      -45.98420000     -31.55050000     -71.16400000
H      -46.39530000     -30.79820000     -70.52860000
H      -46.26220000     -32.51940000     -70.75580000
C      -44.41590000     -34.72450000     -71.24020000
H      -45.16760000     -34.51790000     -70.47680000
H      -44.85300000     -34.66530000     -72.17830000
C      -43.27530000     -33.78900000     -71.07750000
C      -41.97550000     -34.19950000     -70.91480000
C      -43.37700000     -32.32760000     -71.20110000
H      -41.64050000     -35.16780000     -70.86180000
C      -42.07450000     -31.73150000     -71.18070000
C      -44.44810000     -31.34050000     -71.28910000
C      -43.92160000     -30.06620000     -71.34870000
S      -40.80040000     -32.91100000     -70.81370000
S      -42.21870000     -29.97840000     -71.05100000
H      -44.57110000     -29.21550000     -71.45010000
