40
Properties=species:S:1:pos:R:3 #=T CELL(abcABC):=T 1.889726e+02=T 90.00000=T Traj:=T positionsangstrom=T Step:=T 0=T Bead:=T pbc="F F F"
C      -49.10700000     -33.79860000     -70.61320000
C      -48.72590000     -33.88070000     -71.97970000
C      -47.96990000     -34.97920000     -72.40250000
C      -47.48160000     -35.84560000     -71.42840000
C      -47.79370000     -35.68020000     -70.10760000
C      -48.72870000     -34.75260000     -69.66680000
H      -49.64970000     -32.89660000     -70.32060000
H      -47.62180000     -34.96860000     -73.44730000
H      -47.50920000     -36.47440000     -69.44030000
H      -49.06620000     -34.65420000     -68.65640000
C      -46.71840000     -36.98980000     -72.03520000
H      -46.34890000     -36.73700000     -73.07050000
H      -47.37210000     -37.85960000     -72.15210000
C      -49.02640000     -32.71120000     -72.88140000
H      -48.83040000     -33.00810000     -73.91160000
H      -50.11690000     -32.60170000     -72.75090000
S      -45.30400000     -37.55560000     -70.96130000
S      -48.33560000     -31.08270000     -72.35010000
C      -43.99530000     -36.18810000     -71.14360000
H      -43.24380000     -36.43590000     -70.39000000
H      -43.54220000     -36.47570000     -72.06130000
C      -46.48680000     -31.28310000     -72.42190000
H      -46.09730000     -30.31910000     -72.60910000
H      -46.22180000     -31.96980000     -73.30950000
C      -45.99460000     -31.70640000     -71.06990000
H      -46.63270000     -31.14260000     -70.29850000
H      -46.15060000     -32.76630000     -70.86380000
C      -44.42800000     -34.74620000     -71.16260000
H      -45.17230000     -34.51140000     -70.33400000
H      -44.88460000     -34.52520000     -72.10090000
C      -43.26960000     -33.73230000     -70.97780000
C      -41.98340000     -34.13210000     -71.08580000
C      -43.41840000     -32.27870000     -70.88110000
H      -41.66790000     -35.09790000     -71.12420000
C      -42.20850000     -31.65270000     -70.96530000
C      -44.48790000     -31.33870000     -70.85050000
C      -44.08650000     -30.03100000     -70.97770000
S      -40.82020000     -32.75830000     -70.90090000
S      -42.27230000     -29.97230000     -71.11280000
H      -44.73490000     -29.19020000     -71.13540000
