40
Properties=species:S:1:pos:R:3 #=T CELL(abcABC):=T 1.889726e+02=T 90.00000=T Traj:=T positionsangstrom=T Step:=T 0=T Bead:=T pbc="F F F"
C      -49.09280000     -33.77670000     -70.72940000
C      -48.63510000     -33.82490000     -72.09040000
C      -47.82050000     -34.90570000     -72.48310000
C      -47.41280000     -35.83130000     -71.56080000
C      -47.90470000     -35.81610000     -70.25290000
C      -48.67860000     -34.75120000     -69.82340000
H      -49.62920000     -32.88050000     -70.44230000
H      -47.57530000     -35.01390000     -73.59640000
H      -47.48570000     -36.40150000     -69.54440000
H      -48.95180000     -34.73400000     -68.78040000
C      -46.55050000     -37.02940000     -71.96860000
H      -46.26300000     -36.92600000     -73.06090000
H      -47.09490000     -37.95070000     -71.97850000
C      -49.04840000     -32.78530000     -73.00680000
H      -48.59630000     -32.82260000     -74.01430000
H      -50.15890000     -32.68280000     -73.04820000
S      -45.14710000     -37.46970000     -70.91290000
S      -48.57770000     -31.08740000     -72.37650000
C      -43.88320000     -36.18280000     -71.35600000
H      -42.89250000     -36.50240000     -71.00890000
H      -43.76280000     -36.07790000     -72.48560000
C      -46.72810000     -31.28830000     -72.12730000
H      -46.38070000     -30.26890000     -72.37260000
H      -46.24510000     -31.87240000     -72.91380000
C      -46.07560000     -31.72660000     -70.77070000
H      -46.53040000     -31.22690000     -69.92000000
H      -46.23990000     -32.75970000     -70.65980000
C      -44.24220000     -34.84160000     -70.81540000
H      -44.42370000     -34.93930000     -69.76760000
H      -45.25280000     -34.51190000     -71.27100000
C      -43.22800000     -33.74680000     -70.97220000
C      -41.93360000     -34.06410000     -71.06680000
C      -43.45220000     -32.30110000     -70.99970000
H      -41.57620000     -35.04840000     -71.09000000
C      -42.23590000     -31.65030000     -71.04350000
C      -44.58300000     -31.39790000     -70.85940000
C      -44.08170000     -30.13120000     -70.82330000
S      -40.83210000     -32.72140000     -71.24830000
S      -42.33130000     -29.96110000     -70.79560000
H      -44.69890000     -29.27020000     -70.58310000
