40
Properties=species:S:1:pos:R:3 #=T CELL(abcABC):=T 1.889726e+02=T 90.00000=T Traj:=T positionsangstrom=T Step:=T 0=T Bead:=T pbc="F F F"
C      -49.08460000     -33.88660000     -70.79410000
C      -48.56810000     -33.87330000     -72.07140000
C      -47.66060000     -34.87550000     -72.50200000
C      -47.39580000     -35.94850000     -71.67530000
C      -47.96470000     -35.96250000     -70.38940000
C      -48.71540000     -34.92310000     -69.91140000
H      -49.82350000     -33.13870000     -70.47120000
H      -47.17200000     -34.77250000     -73.49190000
H      -47.91060000     -36.81430000     -69.79570000
H      -49.09930000     -34.99150000     -68.87430000
C      -46.58840000     -37.17810000     -72.06380000
H      -46.07940000     -37.06320000     -73.01140000
H      -47.22110000     -38.08140000     -71.94980000
C      -48.85670000     -32.71650000     -72.97540000
H      -48.24250000     -32.80110000     -73.83790000
H      -49.87220000     -32.71850000     -73.36490000
S      -45.13680000     -37.54870000     -70.88140000
S      -48.44770000     -31.07700000     -72.18630000
C      -44.01450000     -36.10200000     -71.37800000
H      -42.96960000     -36.44620000     -71.23780000
H      -44.21530000     -35.92230000     -72.41730000
C      -46.60330000     -31.16050000     -72.29680000
H      -46.34380000     -30.08750000     -72.42390000
H      -46.24340000     -31.76300000     -73.06380000
C      -46.10030000     -31.68290000     -70.93460000
H      -46.64810000     -31.22360000     -70.09150000
H      -46.30990000     -32.78490000     -70.91540000
C      -44.18610000     -34.82620000     -70.60710000
H      -43.98040000     -35.09500000     -69.57750000
H      -45.24540000     -34.46220000     -70.58210000
C      -43.23090000     -33.74310000     -71.04790000
C      -41.91840000     -34.02790000     -71.30340000
C      -43.45710000     -32.28570000     -70.99910000
H      -41.39940000     -35.00700000     -71.39240000
C      -42.22540000     -31.57310000     -70.97010000
C      -44.61290000     -31.44950000     -70.75090000
C      -44.22760000     -30.14630000     -70.49010000
S      -40.86540000     -32.58020000     -71.40650000
S      -42.50870000     -29.89960000     -70.70120000
H      -44.84480000     -29.28780000     -70.16860000
