40
Properties=species:S:1:pos:R:3 #=T CELL(abcABC):=T 1.889726e+02=T 90.00000=T Traj:=T positionsangstrom=T Step:=T 0=T Bead:=T pbc="F F F"
C      -49.00430000     -34.38330000     -70.21490000
C      -48.66490000     -34.39780000     -71.55370000
C      -47.85200000     -35.46970000     -72.04220000
C      -47.37950000     -36.50260000     -71.22860000
C      -47.77200000     -36.51420000     -69.84330000
C      -48.50060000     -35.42800000     -69.40190000
H      -49.62630000     -33.67460000     -69.82670000
H      -47.59960000     -35.40610000     -73.12410000
H      -47.33990000     -37.23710000     -69.13260000
H      -48.67110000     -35.37180000     -68.30950000
C      -46.45970000     -37.50300000     -71.79290000
H      -46.45150000     -37.55870000     -72.90160000
H      -46.44660000     -38.52670000     -71.37790000
C      -49.01910000     -33.27380000     -72.50540000
H      -48.60360000     -33.48070000     -73.51700000
H      -50.14580000     -33.31610000     -72.49880000
S      -44.71620000     -36.76630000     -71.47210000
S      -48.58460000     -31.56770000     -71.99090000
C      -44.47090000     -35.45820000     -72.83420000
H      -43.40800000     -35.61710000     -73.10180000
H      -45.22600000     -35.72240000     -73.59740000
C      -46.68830000     -31.38420000     -72.05090000
H      -46.52160000     -30.33070000     -72.39160000
H      -46.29080000     -32.08750000     -72.79890000
C      -46.07880000     -31.56600000     -70.67130000
H      -46.64940000     -30.89170000     -70.02190000
H      -46.31440000     -32.58140000     -70.21840000
C      -44.66800000     -34.00600000     -72.40860000
H      -45.52720000     -33.97930000     -71.66850000
H      -44.95350000     -33.51170000     -73.34320000
C      -43.43250000     -33.24520000     -71.89410000
C      -42.11520000     -33.60490000     -72.12140000
C      -43.48860000     -32.02770000     -71.14380000
H      -41.67590000     -34.50980000     -72.45880000
C      -42.23210000     -31.42160000     -70.90760000
C      -44.50780000     -31.27130000     -70.55810000
C      -44.04520000     -30.05540000     -70.02060000
S      -40.88630000     -32.41190000     -71.50480000
S      -42.33120000     -29.91000000     -70.09300000
H      -44.63090000     -29.23690000     -69.62650000
