40
Properties=species:S:1:pos:R:3 #=T CELL(abcABC):=T 1.889726e+02=T 90.00000=T Traj:=T positionsangstrom=T Step:=T 0=T Bead:=T pbc="F F F"
C      -48.88280000     -34.28750000     -69.92530000
C      -48.46910000     -34.17590000     -71.27570000
C      -47.58170000     -35.11530000     -71.79370000
C      -46.99570000     -36.08500000     -70.99910000
C      -47.34400000     -36.18930000     -69.64900000
C      -48.35510000     -35.31970000     -69.14190000
H      -49.65730000     -33.62500000     -69.47440000
H      -47.28740000     -35.10340000     -72.83540000
H      -46.82230000     -36.89590000     -69.04270000
H      -48.68170000     -35.35190000     -68.18560000
C      -46.08440000     -37.13690000     -71.65800000
H      -46.45580000     -37.40990000     -72.63140000
H      -46.13300000     -38.07430000     -71.15390000
C      -49.06630000     -33.15200000     -72.19850000
H      -48.69990000     -33.20550000     -73.24120000
H      -50.15140000     -33.31180000     -72.29650000
S      -44.30120000     -36.58910000     -71.66320000
S      -48.90500000     -31.37820000     -71.67850000
C      -44.33450000     -35.59370000     -73.24570000
H      -43.38340000     -35.81850000     -73.71600000
H      -44.99110000     -36.14500000     -73.92490000
C      -47.10490000     -31.06430000     -71.85680000
H      -47.14450000     -29.98710000     -71.62980000
H      -46.63760000     -31.24430000     -72.81080000
C      -46.20710000     -31.90870000     -70.81380000
H      -46.69010000     -31.77700000     -69.80960000
H      -46.19060000     -32.97620000     -71.04600000
C      -44.61620000     -34.10570000     -73.04870000
H      -45.48720000     -33.97520000     -72.44180000
H      -45.01890000     -33.63060000     -73.95140000
C      -43.55990000     -33.32810000     -72.32180000
C      -42.19400000     -33.60600000     -72.50900000
C      -43.63560000     -32.20480000     -71.38270000
H      -41.80390000     -34.20150000     -73.33720000
C      -42.43740000     -31.74620000     -70.90250000
C      -44.75090000     -31.51210000     -70.78740000
C      -44.29320000     -30.46570000     -70.03890000
S      -40.98300000     -32.64780000     -71.53680000
S      -42.50410000     -30.25400000     -70.01540000
H      -44.83930000     -29.67370000     -69.46540000
