40
Properties=species:S:1:pos:R:3 #=T CELL(abcABC):=T 1.889726e+02=T 90.00000=T Traj:=T positionsangstrom=T Step:=T 0=T Bead:=T pbc="F F F"
C      -49.27700000     -32.41310000     -72.47340000
C      -48.77750000     -33.14680000     -71.41760000
C      -47.95200000     -32.46650000     -70.49840000
C      -47.70500000     -31.09920000     -70.58260000
C      -48.26330000     -30.33240000     -71.63950000
C      -49.03260000     -31.02600000     -72.58230000
H      -49.82530000     -32.93230000     -73.23570000
H      -47.44260000     -33.21060000     -69.72930000
H      -48.09050000     -29.29250000     -71.60390000
H      -49.39170000     -30.51610000     -73.47750000
C      -46.95990000     -30.37170000     -69.46060000
H      -46.71830000     -31.00780000     -68.64210000
H      -47.61960000     -29.56280000     -68.98380000
C      -48.96550000     -34.63560000     -71.21540000
H      -48.59640000     -34.87530000     -70.23940000
H      -50.04020000     -34.74650000     -71.36810000
S      -45.44710000     -29.52100000     -70.11150000
S      -48.18670000     -35.78790000     -72.46700000
C      -44.48780000     -30.90360000     -70.81820000
H      -45.03550000     -31.21040000     -71.72080000
H      -43.55320000     -30.50160000     -71.13250000
C      -46.51510000     -35.10190000     -72.54820000
H      -46.54190000     -34.04140000     -72.92780000
H      -45.95320000     -35.68130000     -73.27390000
C      -45.76870000     -35.19660000     -71.25930000
H      -45.86190000     -34.36390000     -70.65530000
H      -46.13640000     -36.00800000     -70.62600000
C      -44.27690000     -32.17700000     -69.86530000
H      -45.20410000     -32.70200000     -69.82440000
H      -43.90430000     -32.00200000     -68.84870000
C      -43.29100000     -33.17240000     -70.47500000
C      -42.01470000     -32.69670000     -70.44630000
C      -43.25260000     -34.45670000     -71.15350000
H      -41.80090000     -31.77680000     -69.97950000
C      -42.02750000     -34.89800000     -71.58880000
C      -44.22980000     -35.46820000     -71.44390000
C      -43.75040000     -36.61920000     -72.06140000
S      -40.78200000     -33.71410000     -71.21880000
S      -42.04090000     -36.54190000     -72.23910000
H      -44.32750000     -37.46340000     -72.44280000
