40
Properties=species:S:1:pos:R:3 #=T CELL(abcABC):=T 1.889726e+02=T 90.00000=T Traj:=T positionsangstrom=T Step:=T 0=T Bead:=T pbc="F F F"
C      -49.16100000     -32.51240000     -72.59920000
C      -48.71640000     -33.27490000     -71.45450000
C      -48.03380000     -32.53000000     -70.47160000
C      -47.90280000     -31.10030000     -70.50030000
C      -48.55550000     -30.39300000     -71.50510000
C      -48.98300000     -31.12640000     -72.65290000
H      -49.68980000     -32.97340000     -73.37240000
H      -47.54490000     -33.03680000     -69.54860000
H      -48.41330000     -29.27120000     -71.55210000
H      -49.25840000     -30.57530000     -73.52740000
C      -47.10570000     -30.29300000     -69.51530000
H      -46.88080000     -30.86690000     -68.60080000
H      -47.59540000     -29.39030000     -69.13040000
C      -49.03770000     -34.73550000     -71.28490000
H      -48.65370000     -35.18810000     -70.32920000
H      -50.10160000     -34.99780000     -71.29950000
S      -45.54160000     -29.66780000     -70.16420000
S      -48.18730000     -35.76130000     -72.66740000
C      -44.63830000     -31.11290000     -70.93430000
H      -45.06760000     -31.57440000     -71.86760000
H      -43.62750000     -30.68880000     -71.22230000
C      -46.37500000     -35.31360000     -72.51360000
H      -46.27310000     -34.28730000     -72.82400000
H      -45.84640000     -35.91510000     -73.29340000
C      -45.77120000     -35.49920000     -71.02860000
H      -46.34200000     -34.78990000     -70.43570000
H      -46.10840000     -36.56970000     -70.80320000
C      -44.25560000     -32.16020000     -69.95330000
H      -45.08280000     -32.87870000     -69.81180000
H      -44.11010000     -31.69480000     -68.91920000
C      -43.11260000     -32.97570000     -70.34990000
C      -41.79270000     -32.51830000     -70.48380000
C      -43.20590000     -34.33350000     -70.96350000
H      -41.47160000     -31.48080000     -70.16890000
C      -42.01800000     -34.73490000     -71.56220000
C      -44.24090000     -35.36260000     -71.21240000
C      -43.73530000     -36.50220000     -71.81390000
S      -40.65410000     -33.62450000     -71.26020000
S      -42.02850000     -36.34770000     -72.22020000
H      -44.28870000     -37.37680000     -71.94150000
