40
Properties=species:S:1:pos:R:3 #=T CELL(abcABC):=T 1.889726e+02=T 90.00000=T Traj:=T positionsangstrom=T Step:=T 0=T Bead:=T pbc="F F F"
C      -49.27870000     -32.84220000     -72.68700000
C      -48.78890000     -33.44020000     -71.49590000
C      -48.17120000     -32.69040000     -70.50770000
C      -48.10730000     -31.28560000     -70.64000000
C      -48.76230000     -30.65000000     -71.69370000
C      -49.32160000     -31.47730000     -72.70810000
H      -49.74120000     -33.47780000     -73.48910000
H      -47.73700000     -33.22100000     -69.60490000
H      -48.82830000     -29.65060000     -71.90420000
H      -49.78290000     -31.03690000     -73.61580000
C      -47.40680000     -30.48640000     -69.58460000
H      -47.10270000     -31.20000000     -68.88750000
H      -48.01420000     -29.66160000     -69.08680000
C      -48.85000000     -34.91370000     -71.17700000
H      -48.29200000     -35.14420000     -70.25440000
H      -49.77150000     -35.40530000     -71.05840000
S      -45.83960000     -29.69890000     -70.16180000
S      -48.01740000     -35.75060000     -72.58640000
C      -44.93870000     -30.95400000     -71.14930000
H      -45.62250000     -31.38790000     -71.90180000
H      -44.15150000     -30.47420000     -71.65840000
C      -46.33260000     -34.93120000     -72.53400000
H      -46.55320000     -33.87220000     -72.57930000
H      -45.90020000     -35.15500000     -73.53490000
C      -45.51100000     -35.31980000     -71.28230000
H      -45.78780000     -34.67510000     -70.45840000
H      -45.73720000     -36.37380000     -70.99050000
C      -44.39760000     -32.06130000     -70.15340000
H      -45.12260000     -32.82080000     -69.82080000
H      -44.06540000     -31.55820000     -69.27370000
C      -43.19700000     -32.83280000     -70.67330000
C      -41.89130000     -32.35220000     -70.56250000
C      -43.11300000     -34.22430000     -71.15210000
H      -41.65070000     -31.32800000     -70.27040000
C      -41.81300000     -34.60650000     -71.43540000
C      -44.03450000     -35.34820000     -71.49990000
C      -43.37950000     -36.47690000     -71.76850000
S      -40.63270000     -33.44400000     -70.96720000
S      -41.63860000     -36.33880000     -71.83300000
H      -43.72260000     -37.55740000     -71.84080000
