40
Properties=species:S:1:pos:R:3 #=T CELL(abcABC):=T 1.889726e+02=T 90.00000=T Traj:=T positionsangstrom=T Step:=T 0=T Bead:=T pbc="F F F"
C      -49.66050000     -32.81980000     -72.38110000
C      -48.93970000     -33.49220000     -71.40070000
C      -48.23830000     -32.76610000     -70.36980000
C      -48.03630000     -31.37440000     -70.63830000
C      -48.53880000     -30.75360000     -71.83680000
C      -49.40360000     -31.44730000     -72.65350000
H      -50.23420000     -33.30120000     -73.18080000
H      -47.82680000     -33.46020000     -69.57480000
H      -48.37190000     -29.69580000     -71.91890000
H      -49.85940000     -31.01140000     -73.49220000
C      -47.34270000     -30.38340000     -69.65060000
H      -46.92760000     -30.93770000     -68.73880000
H      -48.06110000     -29.62750000     -69.27320000
C      -48.80900000     -34.99600000     -71.32170000
H      -48.37200000     -35.25800000     -70.34870000
H      -49.80230000     -35.53490000     -71.40370000
S      -45.89600000     -29.53950000     -70.46450000
S      -47.88900000     -35.83000000     -72.71120000
C      -44.95920000     -30.92720000     -71.25140000
H      -45.65840000     -31.36080000     -72.03540000
H      -44.10070000     -30.50460000     -71.77270000
C      -46.16420000     -35.23120000     -72.47380000
H      -46.14550000     -34.17790000     -72.78070000
H      -45.56230000     -35.84490000     -73.21980000
C      -45.52070000     -35.35910000     -71.08830000
H      -45.86630000     -34.66210000     -70.40450000
H      -45.90650000     -36.33130000     -70.68170000
C      -44.57140000     -32.09400000     -70.25470000
H      -45.44330000     -32.68390000     -70.21350000
H      -44.46120000     -31.66130000     -69.24100000
C      -43.26930000     -32.86610000     -70.62040000
C      -42.05440000     -32.20710000     -70.55920000
C      -43.06300000     -34.29380000     -70.97100000
H      -41.97430000     -31.19430000     -70.34400000
C      -41.77360000     -34.65070000     -71.18520000
C      -43.96010000     -35.41510000     -71.25360000
C      -43.31630000     -36.50760000     -71.72850000
S      -40.64450000     -33.32550000     -70.87700000
S      -41.55350000     -36.25600000     -71.87660000
H      -43.74280000     -37.45410000     -72.19330000
