40
Properties=species:S:1:pos:R:3 #=T CELL(abcABC):=T 1.889726e+02=T 90.00000=T Traj:=T positionsangstrom=T Step:=T 0=T Bead:=T pbc="F F F"
C      -49.57820000     -33.98660000     -70.71240000
C      -48.76050000     -34.25010000     -71.81490000
C      -48.27750000     -33.13960000     -72.58530000
C      -48.63600000     -31.84230000     -72.18820000
C      -49.33320000     -31.62030000     -71.01920000
C      -49.87380000     -32.70910000     -70.30830000
H      -50.11130000     -34.80870000     -70.19970000
H      -47.46030000     -33.25390000     -73.27000000
H      -49.60350000     -30.64080000     -70.69810000
H      -50.38520000     -32.47230000     -69.39450000
C      -48.05360000     -30.62480000     -72.90760000
H      -48.76670000     -29.83730000     -72.91510000
H      -47.63910000     -30.89700000     -73.89290000
C      -48.15120000     -35.55420000     -72.30480000
H      -48.94310000     -36.20500000     -72.66400000
H      -47.41800000     -35.47870000     -73.12310000
S      -46.70620000     -29.94980000     -71.69870000
S      -47.44640000     -36.53340000     -70.85070000
C      -45.18500000     -30.90110000     -72.04790000
H      -45.26370000     -31.54620000     -72.90090000
H      -44.42710000     -30.15380000     -72.19850000
C      -45.96380000     -35.60790000     -70.29640000
H      -45.37830000     -36.24450000     -69.65450000
H      -46.25900000     -34.74910000     -69.66070000
C      -45.12570000     -35.17860000     -71.50110000
H      -45.09850000     -36.05290000     -72.09130000
H      -45.61980000     -34.32660000     -72.03440000
C      -44.74170000     -31.70740000     -70.70110000
H      -45.43070000     -32.50020000     -70.52940000
H      -44.97850000     -30.99270000     -69.94000000
C      -43.26730000     -32.25240000     -70.86430000
C      -42.19160000     -31.42010000     -70.76420000
C      -42.89640000     -33.65100000     -71.01730000
H      -42.32330000     -30.35780000     -70.57710000
C      -41.52360000     -33.81110000     -71.07670000
C      -43.62650000     -34.90490000     -71.22400000
C      -42.73770000     -35.97130000     -71.37480000
S      -40.65950000     -32.31850000     -70.78690000
S      -41.06610000     -35.47910000     -71.24410000
H      -42.94560000     -37.05910000     -71.40840000
