40
Properties=species:S:1:pos:R:3 #=T CELL(abcABC):=T 1.889726e+02=T 90.00000=T Traj:=T positionsangstrom=T Step:=T 0=T Bead:=T pbc="F F F"
C      -43.87180000     -36.55030000     -72.68210000
C      -43.27050000     -36.17630000     -71.44410000
C      -42.53610000     -34.96260000     -71.42400000
C      -42.33810000     -34.23660000     -72.59680000
C      -42.88520000     -34.67880000     -73.79290000
C      -43.66610000     -35.82020000     -73.81890000
H      -44.41630000     -37.45810000     -72.64250000
H      -42.09290000     -34.47590000     -70.63370000
H      -42.81180000     -34.09050000     -74.73070000
H      -43.95260000     -36.26200000     -74.76640000
C      -41.53520000     -32.93420000     -72.47260000
H      -40.56980000     -32.92280000     -72.93410000
H      -41.25180000     -32.64880000     -71.46150000
C      -43.25620000     -37.06390000     -70.20690000
H      -43.51210000     -38.08160000     -70.45540000
H      -42.33590000     -36.93400000     -69.68740000
S      -42.41770000     -31.58200000     -73.29520000
S      -44.66020000     -36.59590000     -68.97600000
C      -43.81150000     -31.24360000     -72.03130000
H      -43.53630000     -31.72560000     -71.06850000
H      -43.90070000     -30.11950000     -71.95730000
C      -45.77620000     -35.49670000     -69.97350000
H      -46.75710000     -35.82920000     -69.67680000
H      -45.82570000     -35.70590000     -71.03620000
C      -45.55790000     -34.00460000     -69.66500000
H      -45.19360000     -33.95470000     -68.60720000
H      -44.76200000     -33.65290000     -70.42620000
C      -45.06330000     -31.89960000     -72.60810000
H      -44.88470000     -32.94970000     -72.68210000
H      -45.10680000     -31.63060000     -73.70600000
C      -46.37690000     -31.55760000     -72.01700000
C      -47.21650000     -30.66050000     -72.67410000
C      -47.06640000     -32.10850000     -70.85680000
H      -47.05350000     -30.06270000     -73.56770000
C      -48.31360000     -31.53670000     -70.63150000
C      -46.81810000     -33.11610000     -69.85650000
C      -47.76370000     -33.18460000     -68.90220000
S      -48.74820000     -30.41470000     -71.87590000
S      -49.17380000     -32.19520000     -69.30140000
H      -47.74750000     -33.69440000     -68.01820000
