40
Properties=species:S:1:pos:R:3 #=T CELL(abcABC):=T 1.889726e+02=T 90.00000=T Traj:=T positionsangstrom=T Step:=T 0=T Bead:=T pbc="F F F"
C      -43.87350000     -32.40440000     -68.35590000
C      -43.10890000     -33.56570000     -68.68050000
C      -43.85790000     -34.78620000     -68.70910000
C      -45.21250000     -34.88680000     -68.41470000
C      -45.88240000     -33.70300000     -68.13450000
C      -45.22760000     -32.55750000     -68.01050000
H      -43.44420000     -31.38060000     -68.11590000
H      -43.42400000     -35.68850000     -69.11680000
H      -46.88880000     -33.77550000     -67.82230000
H      -45.74270000     -31.64710000     -67.59760000
C      -45.90200000     -36.21760000     -68.58340000
H      -46.88410000     -36.24630000     -68.17780000
H      -45.39410000     -37.02820000     -68.04830000
C      -41.69550000     -33.51900000     -69.09950000
H      -41.19310000     -32.63600000     -68.59850000
H      -41.12700000     -34.34760000     -68.84650000
S      -45.99930000     -36.70210000     -70.30950000
S      -41.33630000     -33.46720000     -70.97440000
C      -46.99890000     -35.41710000     -71.03400000
H      -48.06970000     -35.81480000     -70.94930000
H      -46.90700000     -34.49070000     -70.45690000
C      -42.76890000     -32.46140000     -71.66130000
H      -42.47090000     -32.09540000     -72.66290000
H      -42.75350000     -31.61560000     -71.00550000
C      -44.12770000     -33.13560000     -71.72880000
H      -44.09390000     -34.07720000     -72.36970000
H      -44.39750000     -33.62210000     -70.78390000
C      -46.68360000     -35.21150000     -72.55540000
H      -47.05360000     -36.11250000     -73.11100000
H      -45.54270000     -35.21720000     -72.55030000
C      -47.18400000     -33.88690000     -73.07270000
C      -48.35050000     -33.72720000     -73.76430000
C      -46.40130000     -32.63920000     -73.00110000
H      -49.06510000     -34.50860000     -73.92330000
C      -47.03790000     -31.63080000     -73.66450000
C      -45.12580000     -32.21940000     -72.38600000
C      -44.80030000     -30.90390000     -72.73590000
S      -48.58180000     -32.08310000     -74.33510000
S      -46.02210000     -30.21470000     -73.76600000
H      -43.82560000     -30.40540000     -72.62440000
