40
Properties=species:S:1:pos:R:3 #=T CELL(abcABC):=T 1.889726e+02=T 90.00000=T Traj:=T positionsangstrom=T Step:=T 0=T Bead:=T pbc="F F F"
C      -43.73360000     -32.44340000     -68.07950000
C      -43.11650000     -33.55880000     -68.62370000
C      -43.94050000     -34.73110000     -68.75880000
C      -45.25910000     -34.78660000     -68.32970000
C      -45.88710000     -33.66480000     -67.78730000
C      -45.07380000     -32.52810000     -67.69070000
H      -43.12170000     -31.56300000     -67.91280000
H      -43.45800000     -35.53510000     -69.20230000
H      -46.93140000     -33.59660000     -67.38430000
H      -45.52360000     -31.70420000     -67.21580000
C      -45.96750000     -36.11110000     -68.40340000
H      -46.85020000     -36.06790000     -67.77270000
H      -45.29460000     -36.81920000     -68.03080000
C      -41.73310000     -33.47990000     -69.09770000
H      -41.36980000     -32.48260000     -69.02070000
H      -41.00870000     -34.19630000     -68.60510000
S      -46.37300000     -36.54510000     -70.12260000
S      -41.55670000     -33.97930000     -70.89520000
C      -46.82410000     -35.02550000     -71.05020000
H      -47.86980000     -34.68510000     -71.02170000
H      -46.27840000     -34.11560000     -70.64090000
C      -42.49840000     -32.64610000     -71.92440000
H      -42.08630000     -32.66620000     -72.91820000
H      -42.22100000     -31.67220000     -71.51320000
C      -44.06580000     -32.96400000     -71.90700000
H      -44.17470000     -33.94230000     -72.35600000
H      -44.36800000     -32.92530000     -70.82830000
C      -46.40070000     -35.16710000     -72.50040000
H      -46.96540000     -36.07560000     -72.89810000
H      -45.34410000     -35.42440000     -72.63690000
C      -46.83380000     -33.99780000     -73.28600000
C      -48.05220000     -33.96370000     -73.91680000
C      -46.34180000     -32.57430000     -73.06010000
H      -48.64780000     -34.78490000     -74.18590000
C      -47.11930000     -31.59900000     -73.68090000
C      -45.03730000     -32.06460000     -72.67630000
C      -44.82320000     -30.70550000     -72.94410000
S      -48.48300000     -32.35160000     -74.53670000
S      -46.18690000     -29.98930000     -73.78500000
H      -44.01370000     -30.05400000     -72.57580000
