40
Properties=species:S:1:pos:R:3 #=T CELL(abcABC):=T 1.889726e+02=T 90.00000=T Traj:=T positionsangstrom=T Step:=T 0=T Bead:=T pbc="F F F"
C      -43.76630000     -32.47100000     -67.94260000
C      -43.20520000     -33.59570000     -68.52950000
C      -43.95870000     -34.75020000     -68.58490000
C      -45.33650000     -34.76830000     -68.15120000
C      -45.82860000     -33.62880000     -67.41640000
C      -45.05920000     -32.48960000     -67.34880000
H      -43.17230000     -31.54950000     -68.02200000
H      -43.59920000     -35.58430000     -69.21820000
H      -46.83170000     -33.63600000     -66.95150000
H      -45.38300000     -31.51540000     -66.95230000
C      -46.19110000     -36.01980000     -68.36670000
H      -47.19730000     -36.04690000     -67.97790000
H      -45.77550000     -36.92780000     -67.86220000
C      -41.77330000     -33.45630000     -69.23650000
H      -41.36480000     -32.43130000     -69.21430000
H      -41.13670000     -34.03790000     -68.64230000
S      -46.25420000     -36.50260000     -70.13450000
S      -41.72700000     -34.10070000     -70.98650000
C      -46.72480000     -34.93310000     -70.96880000
H      -47.74190000     -34.63640000     -70.75350000
H      -46.00210000     -34.22100000     -70.55370000
C      -42.52850000     -32.60340000     -71.79790000
H      -42.00780000     -32.31940000     -72.68920000
H      -42.35050000     -31.80080000     -71.02950000
C      -44.00140000     -33.00900000     -71.98200000
H      -44.06720000     -33.97200000     -72.50470000
H      -44.47240000     -33.31920000     -71.03390000
C      -46.52040000     -35.15910000     -72.45180000
H      -47.19160000     -35.90390000     -72.78020000
H      -45.46680000     -35.54950000     -72.64610000
C      -46.83830000     -34.00060000     -73.36400000
C      -48.04180000     -33.89090000     -74.01680000
C      -46.14980000     -32.68750000     -73.36850000
H      -48.76890000     -34.63430000     -74.42160000
C      -46.89870000     -31.66180000     -73.96620000
C      -44.98780000     -32.10280000     -72.76370000
C      -44.87700000     -30.72210000     -72.89190000
S      -48.37610000     -32.28010000     -74.65580000
S      -46.21930000     -30.00560000     -73.79970000
H      -43.97760000     -30.20430000     -72.70680000
