40
Properties=species:S:1:pos:R:3 #=T CELL(abcABC):=T 1.889726e+02=T 90.00000=T Traj:=T positionsangstrom=T Step:=T 0=T Bead:=T pbc="F F F"
C      -43.95890000     -37.03390000     -72.02520000
C      -43.86310000     -36.54460000     -70.68580000
C      -43.03510000     -35.46020000     -70.45960000
C      -42.27200000     -34.84670000     -71.44370000
C      -42.34630000     -35.34310000     -72.71870000
C      -43.21410000     -36.42040000     -73.02100000
H      -44.72260000     -37.85530000     -72.15320000
H      -42.91330000     -34.97720000     -69.51310000
H      -41.84320000     -35.00200000     -73.60330000
H      -43.27000000     -36.81770000     -74.01920000
C      -41.44310000     -33.58980000     -71.20980000
H      -40.40920000     -33.73150000     -71.36940000
H      -41.63790000     -33.07940000     -70.21790000
C      -44.70270000     -37.10570000     -69.56220000
H      -45.40570000     -37.81130000     -70.00900000
H      -44.02420000     -37.60730000     -68.83250000
S      -41.87370000     -32.34880000     -72.53570000
S      -45.43800000     -35.79980000     -68.51950000
C      -43.62850000     -31.79240000     -72.05590000
H      -43.66740000     -31.60190000     -70.95140000
H      -43.82900000     -30.91870000     -72.70700000
C      -46.39960000     -34.88710000     -69.78430000
H      -47.45160000     -35.02520000     -69.58400000
H      -46.16540000     -35.20840000     -70.81690000
C      -46.08000000     -33.39140000     -69.47230000
H      -46.15750000     -33.19700000     -68.36880000
H      -45.07000000     -33.08040000     -69.66520000
C      -44.69680000     -32.81890000     -72.57670000
H      -44.71830000     -33.74900000     -72.01960000
H      -44.51860000     -33.13470000     -73.58740000
C      -46.05030000     -32.14840000     -72.59290000
C      -46.49170000     -31.49460000     -73.70060000
C      -46.98390000     -31.91470000     -71.52170000
H      -46.15410000     -31.59860000     -74.72250000
C      -48.02350000     -31.06680000     -71.81010000
C      -47.07840000     -32.40800000     -70.14750000
C      -48.13440000     -31.83550000     -69.44500000
S      -48.02580000     -30.59260000     -73.46510000
S      -49.04100000     -30.83720000     -70.44610000
H      -48.28220000     -32.07110000     -68.39530000
