40
Properties=species:S:1:pos:R:3 #=T CELL(abcABC):=T 1.889726e+02=T 90.00000=T Traj:=T positionsangstrom=T Step:=T 0=T Bead:=T pbc="F F F"
C      -49.63710000     -34.88390000     -70.13100000
C      -48.74890000     -34.34860000     -71.06460000
C      -48.16200000     -33.11110000     -70.78990000
C      -48.22530000     -32.46520000     -69.58200000
C      -49.14000000     -32.95970000     -68.62550000
C      -49.87370000     -34.11370000     -68.92050000
H      -50.25360000     -35.73080000     -70.38990000
H      -47.44390000     -32.79530000     -71.51430000
H      -49.17730000     -32.47370000     -67.66930000
H      -50.58580000     -34.44860000     -68.17840000
C      -47.36460000     -31.27010000     -69.28080000
H      -48.01490000     -30.50440000     -68.83580000
H      -46.92850000     -30.78780000     -70.17330000
C      -48.44910000     -34.96980000     -72.41040000
H      -47.60750000     -35.65230000     -72.32270000
H      -49.31690000     -35.57360000     -72.69860000
S      -46.09340000     -31.57240000     -67.99170000
S      -47.92510000     -33.87350000     -73.79900000
C      -44.87740000     -32.84590000     -68.74810000
H      -44.16030000     -32.96540000     -68.00930000
H      -45.38490000     -33.80560000     -68.95750000
C      -46.14540000     -34.15650000     -73.84900000
H      -45.90470000     -34.31530000     -74.88040000
H      -45.91390000     -35.14990000     -73.33400000
C      -45.36210000     -32.90490000     -73.29690000
H      -45.48250000     -32.07850000     -74.03700000
H      -45.92100000     -32.47750000     -72.46980000
C      -44.19340000     -32.21760000     -69.95470000
H      -43.78580000     -31.20830000     -69.63030000
H      -44.84590000     -32.01050000     -70.77890000
C      -43.08480000     -33.00140000     -70.64160000
C      -41.93030000     -33.22490000     -69.99760000
C      -43.06020000     -33.40120000     -72.03800000
H      -41.72710000     -32.96300000     -68.99710000
C      -41.80360000     -33.85510000     -72.37960000
C      -43.93200000     -33.35630000     -73.21540000
C      -43.22490000     -33.82480000     -74.32380000
S      -40.67910000     -33.93090000     -71.09230000
S      -41.50810000     -34.20000000     -74.02450000
H      -43.61830000     -33.85060000     -75.29390000
