40
Properties=species:S:1:pos:R:3 #=T CELL(abcABC):=T 1.889726e+02=T 90.00000=T Traj:=T positionsangstrom=T Step:=T 0=T Bead:=T pbc="F F F"
C      -47.85320000     -30.65710000     -72.20280000
C      -47.92570000     -31.85610000     -73.02030000
C      -48.35920000     -33.00830000     -72.43210000
C      -48.79460000     -33.06840000     -71.12310000
C      -48.54090000     -31.97410000     -70.29540000
C      -48.29460000     -30.69540000     -70.81010000
H      -47.43270000     -29.73660000     -72.63360000
H      -48.55980000     -33.82120000     -73.11480000
H      -48.80670000     -32.13250000     -69.24900000
H      -48.06480000     -29.85740000     -70.17330000
C      -49.29090000     -34.34930000     -70.58870000
H      -50.14800000     -34.74640000     -71.28050000
H      -49.70630000     -34.32140000     -69.53070000
C      -47.53740000     -31.71030000     -74.52680000
H      -48.22020000     -32.26250000     -75.15530000
H      -47.34970000     -30.67030000     -74.86410000
S      -47.88580000     -35.59580000     -70.52960000
S      -46.07560000     -32.86870000     -74.88880000
C      -46.38880000     -34.69600000     -69.77870000
H      -46.29900000     -33.77180000     -70.28200000
H      -46.39220000     -34.42130000     -68.77080000
C      -44.72310000     -32.46010000     -73.73830000
H      -44.54890000     -31.38210000     -73.81850000
H      -43.94770000     -32.93830000     -74.16890000
C      -45.00220000     -32.86160000     -72.24720000
H      -45.52310000     -32.07340000     -71.73840000
H      -45.60250000     -33.79400000     -72.22180000
C      -45.23410000     -35.59250000     -70.12520000
H      -45.31300000     -36.01260000     -71.14970000
H      -45.26670000     -36.48880000     -69.50190000
C      -43.83030000     -35.05150000     -69.86260000
C      -43.00890000     -35.60620000     -68.93550000
C      -43.19410000     -33.89210000     -70.56310000
H      -43.18580000     -36.45170000     -68.25900000
C      -41.95410000     -33.65800000     -69.98720000
C      -43.62460000     -32.95170000     -71.54170000
C      -42.62790000     -31.99180000     -71.78030000
S      -41.40900000     -34.73410000     -68.83610000
S      -41.19190000     -32.27180000     -70.71650000
H      -42.63880000     -31.21990000     -72.50670000
