40
Properties=species:S:1:pos:R:3 #=T CELL(abcABC):=T 1.889726e+02=T 90.00000=T Traj:=T positionsangstrom=T Step:=T 0=T Bead:=T pbc="F F F"
C      -44.26660000     -37.54430000     -70.90040000
C      -44.30890000     -36.70820000     -69.80830000
C      -43.40860000     -35.65800000     -69.76400000
C      -42.50930000     -35.34600000     -70.82490000
C      -42.53950000     -36.20530000     -71.94400000
C      -43.34570000     -37.26250000     -72.01100000
H      -44.87210000     -38.48420000     -70.95400000
H      -43.43160000     -35.04250000     -68.84870000
H      -41.89150000     -35.76630000     -72.76050000
H      -43.16730000     -37.93600000     -72.87650000
C      -41.57710000     -34.25080000     -70.68940000
H      -40.53690000     -34.58720000     -70.75680000
H      -41.67810000     -33.69460000     -69.80490000
C      -45.33700000     -36.89670000     -68.73890000
H      -46.05050000     -37.65240000     -69.02270000
H      -44.85060000     -37.27800000     -67.79220000
S      -41.69710000     -32.99750000     -72.04520000
S      -46.39110000     -35.37520000     -68.24140000
C      -43.32690000     -32.22000000     -71.75660000
H      -43.55570000     -32.22300000     -70.64490000
H      -43.10610000     -31.17400000     -72.11410000
C      -46.92260000     -34.42000000     -69.78650000
H      -47.98200000     -34.69790000     -69.97190000
H      -46.36050000     -34.71980000     -70.63090000
C      -46.57690000     -32.95160000     -69.65720000
H      -46.70600000     -32.63060000     -68.63130000
H      -45.46040000     -32.84580000     -69.74380000
C      -44.44170000     -32.96480000     -72.50760000
H      -44.84580000     -33.83710000     -71.85550000
H      -44.10760000     -33.43410000     -73.44130000
C      -45.58100000     -32.07210000     -72.87320000
C      -45.63300000     -31.54520000     -74.12910000
C      -46.74910000     -31.67100000     -72.04370000
H      -44.84310000     -31.65450000     -74.95090000
C      -47.50340000     -30.75310000     -72.71720000
C      -47.27980000     -32.08970000     -70.72970000
C      -48.35320000     -31.29030000     -70.44030000
S      -46.92710000     -30.33950000     -74.24000000
S      -48.82750000     -30.13500000     -71.72650000
H      -48.84170000     -31.25250000     -69.49080000
