40
Properties=species:S:1:pos:R:3 #=T CELL(abcABC):=T 1.889726e+02=T 90.00000=T Traj:=T positionsangstrom=T Step:=T 0=T Bead:=T pbc="F F F"
C      -49.64510000     -34.84520000     -70.16390000
C      -48.71280000     -34.34520000     -71.08590000
C      -48.00600000     -33.15260000     -70.77390000
C      -48.21420000     -32.44380000     -69.60900000
C      -49.15260000     -32.98310000     -68.65280000
C      -49.89730000     -34.14510000     -68.93770000
H      -50.07520000     -35.82180000     -70.46470000
H      -47.48280000     -32.70670000     -71.56380000
H      -49.30810000     -32.47870000     -67.71040000
H      -50.57610000     -34.58580000     -68.24920000
C      -47.47610000     -31.15290000     -69.26070000
H      -48.22120000     -30.61770000     -68.61020000
H      -47.05220000     -30.65610000     -70.12980000
C      -48.54730000     -35.14580000     -72.41710000
H      -47.83290000     -35.95970000     -72.17700000
H      -49.51040000     -35.50330000     -72.76700000
S      -46.11200000     -31.48110000     -68.04310000
S      -47.99330000     -34.08530000     -73.85760000
C      -44.90920000     -32.61690000     -68.92240000
H      -44.19320000     -32.93850000     -68.14960000
H      -45.34190000     -33.58210000     -69.24970000
C      -46.15840000     -34.26130000     -73.74820000
H      -45.80340000     -34.50870000     -74.77060000
H      -45.94040000     -35.09430000     -73.03610000
C      -45.40670000     -33.08350000     -73.12860000
H      -45.64670000     -32.13230000     -73.64990000
H      -45.77090000     -32.95140000     -72.11820000
C      -44.06570000     -31.95920000     -70.02190000
H      -43.56720000     -31.11400000     -69.55540000
H      -44.72410000     -31.56480000     -70.76740000
C      -43.01970000     -32.83940000     -70.69540000
C      -41.87190000     -33.06050000     -70.04590000
C      -42.93730000     -33.28630000     -72.05140000
H      -41.72740000     -32.70710000     -69.03270000
C      -41.69600000     -33.81240000     -72.38000000
C      -43.88900000     -33.30600000     -73.15810000
C      -43.27580000     -33.75490000     -74.29990000
S      -40.61890000     -33.88210000     -70.97490000
S      -41.59140000     -34.39270000     -74.02270000
H      -43.77870000     -33.99490000     -75.22510000
