40
Properties=species:S:1:pos:R:3 #=T CELL(abcABC):=T 1.889726e+02=T 90.00000=T Traj:=T positionsangstrom=T Step:=T 0=T Bead:=T pbc="F F F"
C      -48.16160000     -34.26340000     -69.23440000
C      -48.18690000     -34.48890000     -70.62260000
C      -47.40040000     -35.51750000     -71.21270000
C      -46.61890000     -36.36340000     -70.38910000
C      -46.61470000     -36.17390000     -68.97240000
C      -47.38540000     -35.10390000     -68.41900000
H      -48.78030000     -33.54600000     -68.68060000
H      -47.46490000     -35.79330000     -72.32350000
H      -45.84540000     -36.70760000     -68.43770000
H      -47.42340000     -35.02040000     -67.31710000
C      -45.83060000     -37.53990000     -70.91910000
H      -46.62520000     -38.18890000     -71.36790000
H      -45.30690000     -38.09810000     -70.10780000
C      -49.15020000     -33.67900000     -71.56960000
H      -48.99650000     -33.86410000     -72.62620000
H      -50.18200000     -34.04500000     -71.50220000
S      -44.64760000     -37.05790000     -72.24690000
S      -49.13320000     -31.85680000     -71.24130000
C      -44.34050000     -35.23290000     -72.31500000
H      -43.55000000     -35.32040000     -73.07820000
H      -45.22440000     -34.80970000     -72.80330000
C      -47.50760000     -31.25350000     -71.75910000
H      -47.36960000     -30.44650000     -71.19340000
H      -47.35410000     -31.08320000     -72.84280000
C      -46.31070000     -32.16130000     -71.36940000
H      -46.31850000     -32.36760000     -70.28760000
H      -46.37420000     -33.13390000     -71.94820000
C      -43.85350000     -34.63610000     -70.99590000
H      -43.13910000     -35.43100000     -70.56030000
H      -44.72340000     -34.51010000     -70.33250000
C      -43.15460000     -33.35140000     -71.18240000
C      -41.81690000     -33.39300000     -71.42270000
C      -43.70350000     -32.03850000     -71.57220000
H      -41.23920000     -34.29060000     -71.13520000
C      -42.64580000     -31.21290000     -71.91770000
C      -45.00600000     -31.43560000     -71.63820000
C      -44.92270000     -30.10280000     -71.98730000
S      -41.03750000     -31.85680000     -71.64470000
S      -43.25170000     -29.62680000     -72.41400000
H      -45.70770000     -29.39740000     -72.14270000
