40
Properties=species:S:1:pos:R:3 #=T CELL(abcABC):=T 1.889726e+02=T 90.00000=T Traj:=T positionsangstrom=T Step:=T 0=T Bead:=T pbc="F F F"
C      -47.75790000     -31.35810000     -72.77710000
C      -48.04140000     -32.68450000     -73.18280000
C      -48.49460000     -33.51420000     -72.15270000
C      -48.63630000     -33.15740000     -70.83850000
C      -48.29490000     -31.83220000     -70.43210000
C      -47.96360000     -30.92060000     -71.44470000
H      -47.27430000     -30.65750000     -73.50400000
H      -48.75200000     -34.56340000     -72.42010000
H      -48.50950000     -31.45800000     -69.49630000
H      -47.62060000     -29.94300000     -71.24910000
C      -49.02930000     -34.19160000     -69.81600000
H      -49.82750000     -34.85160000     -70.15220000
H      -49.44520000     -33.63050000     -68.93820000
C      -47.80020000     -33.01810000     -74.62940000
H      -48.69160000     -33.54980000     -74.86560000
H      -47.88660000     -32.05420000     -75.15320000
S      -47.69230000     -35.39240000     -69.24570000
S      -46.40410000     -34.09170000     -75.00390000
C      -46.10110000     -34.44970000     -69.15010000
H      -46.17880000     -33.53000000     -69.77120000
H      -45.88560000     -34.17940000     -68.12160000
C      -45.03300000     -33.22690000     -74.24990000
H      -44.99200000     -32.10570000     -74.44870000
H      -44.12140000     -33.54370000     -74.75020000
C      -44.90930000     -33.48020000     -72.69510000
H      -45.77450000     -32.87940000     -72.21260000
H      -45.10730000     -34.51120000     -72.43540000
C      -44.93320000     -35.29500000     -69.78660000
H      -45.04490000     -35.55680000     -70.80810000
H      -44.81130000     -36.20040000     -69.16760000
C      -43.71270000     -34.40560000     -69.69940000
C      -42.83780000     -34.56710000     -68.58320000
C      -43.22820000     -33.53820000     -70.68790000
H      -42.92630000     -35.19550000     -67.72720000
C      -42.06070000     -32.85700000     -70.26040000
C      -43.63130000     -33.04090000     -72.03970000
C      -42.72580000     -32.12480000     -72.56890000
S      -41.48330000     -33.40310000     -68.69260000
S      -41.39680000     -31.86760000     -71.47990000
H      -42.81440000     -31.61750000     -73.55380000
