40
Properties=species:S:1:pos:R:3 #=T CELL(abcABC):=T 1.889726e+02=T 90.00000=T Traj:=T positionsangstrom=T Step:=T 0=T Bead:=T pbc="F F F"
C      -48.15620000     -31.35000000     -72.61180000
C      -48.21820000     -32.72220000     -73.04290000
C      -48.58400000     -33.69930000     -72.14290000
C      -48.58330000     -33.47050000     -70.76230000
C      -48.54810000     -32.11410000     -70.35610000
C      -48.43890000     -31.04580000     -71.29490000
H      -47.62770000     -30.60820000     -73.21380000
H      -48.60380000     -34.71120000     -72.60590000
H      -48.78570000     -31.94730000     -69.28790000
H      -48.41380000     -30.03940000     -70.89580000
C      -48.68490000     -34.60430000     -69.73220000
H      -49.52100000     -35.28970000     -69.79730000
H      -48.69650000     -34.16120000     -68.70510000
C      -47.93380000     -33.07050000     -74.49830000
H      -48.88950000     -33.43240000     -74.91200000
H      -47.63220000     -32.26980000     -75.11930000
S      -47.19530000     -35.66500000     -69.85450000
S      -46.65010000     -34.39390000     -74.82420000
C      -45.92050000     -34.55620000     -69.04860000
H      -45.98620000     -33.51630000     -69.43480000
H      -46.17600000     -34.53840000     -67.92570000
C      -45.14330000     -33.77220000     -74.00800000
H      -45.27360000     -32.64690000     -73.96940000
H      -44.30160000     -34.03650000     -74.67350000
C      -44.83690000     -34.17380000     -72.56900000
H      -45.78810000     -33.92430000     -72.02240000
H      -44.62300000     -35.23070000     -72.49000000
C      -44.51390000     -35.16130000     -69.24690000
H      -44.52240000     -35.71590000     -70.20050000
H      -44.40180000     -35.81630000     -68.43390000
C      -43.48080000     -34.04070000     -69.33020000
C      -42.66480000     -33.66130000     -68.28790000
C      -43.23310000     -33.33250000     -70.63630000
H      -42.76210000     -33.89770000     -67.25170000
C      -42.15360000     -32.43770000     -70.44920000
C      -43.60220000     -33.38020000     -71.97420000
C      -42.81420000     -32.52170000     -72.75010000
S      -41.46250000     -32.38080000     -68.81160000
S      -41.57560000     -31.63940000     -71.90050000
H      -42.80880000     -32.43530000     -73.86190000
