40
Properties=species:S:1:pos:R:3 #=T CELL(abcABC):=T 1.889726e+02=T 90.00000=T Traj:=T positionsangstrom=T Step:=T 0=T Bead:=T pbc="F F F"
C      -43.43050000     -33.27060000     -69.37300000
C      -44.67080000     -32.69570000     -68.96120000
C      -45.89160000     -33.46350000     -69.00680000
C      -45.79590000     -34.82660000     -69.39080000
C      -44.58910000     -35.40860000     -69.68610000
C      -43.39600000     -34.61340000     -69.67850000
H      -42.65900000     -32.63170000     -69.53390000
H      -46.80720000     -33.06810000     -68.71830000
H      -44.60990000     -36.44140000     -70.04430000
H      -42.38890000     -34.91600000     -69.98010000
C      -47.04250000     -35.72680000     -69.67330000
H      -47.05930000     -36.50510000     -68.86420000
H      -46.93410000     -36.28300000     -70.59760000
C      -44.48010000     -31.26200000     -68.57270000
H      -45.36080000     -30.78760000     -68.02960000
H      -43.68360000     -31.20610000     -67.88640000
S      -48.64700000     -34.89140000     -69.80200000
S      -43.86110000     -30.08590000     -69.90330000
C      -48.78480000     -34.62950000     -71.55370000
H      -48.80500000     -35.60770000     -72.07160000
H      -49.82540000     -34.18620000     -71.77690000
C      -45.21310000     -29.83830000     -71.12320000
H      -44.72300000     -29.22370000     -71.95240000
H      -45.86310000     -29.31330000     -70.55260000
C      -45.84600000     -31.09440000     -71.71200000
H      -46.23840000     -31.80720000     -71.04320000
H      -46.75600000     -30.72420000     -72.23200000
C      -47.81130000     -33.64310000     -72.20330000
H      -47.62960000     -32.88210000     -71.41020000
H      -48.42560000     -33.05470000     -72.97890000
C      -46.48070000     -34.17180000     -72.77910000
C      -46.22880000     -35.43470000     -73.23200000
C      -45.29820000     -33.29270000     -72.90480000
H      -46.98600000     -36.23480000     -73.22200000
C      -44.27580000     -33.98310000     -73.51070000
C      -44.99480000     -31.93150000     -72.61350000
C      -43.72420000     -31.63570000     -73.02710000
S      -44.56550000     -35.70790000     -73.70970000
S      -42.85360000     -32.99060000     -73.71770000
H      -43.27220000     -30.63440000     -73.06140000
