40
Properties=species:S:1:pos:R:3 #=T CELL(abcABC):=T 1.889726e+02=T 90.00000=T Traj:=T positionsangstrom=T Step:=T 0=T Bead:=T pbc="F F F"
C      -49.68670000     -34.85840000     -70.00430000
C      -48.86690000     -34.26570000     -71.01160000
C      -48.17920000     -33.11600000     -70.70830000
C      -48.28850000     -32.41760000     -69.47480000
C      -49.06180000     -33.04300000     -68.50100000
C      -49.79790000     -34.20540000     -68.80060000
H      -50.27280000     -35.76290000     -70.26930000
H      -47.48990000     -32.77370000     -71.47270000
H      -49.23480000     -32.51710000     -67.54570000
H      -50.56850000     -34.60190000     -68.15630000
C      -47.49690000     -31.14590000     -69.31790000
H      -48.10240000     -30.29740000     -68.98170000
H      -47.17110000     -30.83710000     -70.30660000
C      -48.73740000     -35.06480000     -72.32990000
H      -48.20940000     -36.01970000     -72.14630000
H      -49.69870000     -35.50160000     -72.70460000
S      -45.97900000     -31.41240000     -68.22460000
S      -48.00900000     -34.16510000     -73.76640000
C      -44.96840000     -32.48130000     -69.37520000
H      -44.48020000     -33.19590000     -68.68420000
H      -45.64190000     -33.02560000     -70.03390000
C      -46.14680000     -34.43080000     -73.75280000
H      -45.82810000     -34.48980000     -74.82330000
H      -45.83300000     -35.30700000     -73.26090000
C      -45.42010000     -33.27910000     -73.14690000
H      -45.63350000     -32.33200000     -73.64180000
H      -45.67460000     -33.17550000     -72.09280000
C      -44.01020000     -31.69650000     -70.20910000
H      -43.46330000     -30.98750000     -69.63230000
H      -44.51060000     -31.04140000     -70.97710000
C      -42.92850000     -32.60250000     -70.81050000
C      -41.76350000     -32.75390000     -70.17990000
C      -42.94350000     -33.27060000     -72.08110000
H      -41.55220000     -32.31490000     -69.18830000
C      -41.63700000     -33.80330000     -72.34940000
C      -43.88080000     -33.49580000     -73.13020000
C      -43.25940000     -34.13600000     -74.16620000
S      -40.66090000     -33.84350000     -70.90800000
S      -41.58010000     -34.47780000     -73.94220000
H      -43.65130000     -34.41760000     -75.16550000
