40
Properties=species:S:1:pos:R:3 #=T CELL(abcABC):=T 1.889726e+02=T 90.00000=T Traj:=T positionsangstrom=T Step:=T 0=T Bead:=T pbc="F F F"
C      -48.31280000     -31.65190000     -72.81980000
C      -48.27530000     -32.97410000     -73.15550000
C      -48.47380000     -33.97710000     -72.15810000
C      -48.62490000     -33.60690000     -70.81710000
C      -48.80630000     -32.24810000     -70.51620000
C      -48.61560000     -31.23170000     -71.44690000
H      -47.97040000     -30.87860000     -73.51980000
H      -48.30750000     -35.02710000     -72.36870000
H      -49.05030000     -31.91900000     -69.50030000
H      -48.58190000     -30.18100000     -71.11980000
C      -48.68440000     -34.63320000     -69.72530000
H      -49.53320000     -35.35070000     -69.93480000
H      -48.91980000     -34.17560000     -68.73440000
C      -47.97150000     -33.38610000     -74.60040000
H      -48.74720000     -33.99020000     -75.05610000
H      -47.71200000     -32.59260000     -75.31920000
S      -47.18800000     -35.71870000     -69.57160000
S      -46.52430000     -34.59470000     -74.59400000
C      -45.94040000     -34.38660000     -69.34930000
H      -46.07280000     -33.49750000     -70.02440000
H      -46.00990000     -33.93830000     -68.34500000
C      -45.19870000     -33.51680000     -73.99330000
H      -45.44720000     -32.48250000     -74.06460000
H      -44.25770000     -33.77770000     -74.56640000
C      -44.89330000     -33.73790000     -72.48740000
H      -45.77170000     -33.46600000     -71.90100000
H      -44.66980000     -34.80480000     -72.20040000
C      -44.51740000     -35.05600000     -69.40530000
H      -44.37870000     -35.63770000     -70.28960000
H      -44.44480000     -35.69100000     -68.50940000
C      -43.44560000     -34.02240000     -69.45060000
C      -42.59520000     -33.80810000     -68.41330000
C      -43.10590000     -33.25540000     -70.63560000
H      -42.51180000     -34.34020000     -67.47710000
C      -42.00040000     -32.43140000     -70.44010000
C      -43.71400000     -32.98600000     -71.99310000
C      -43.01510000     -32.03010000     -72.71310000
S      -41.31430000     -32.48820000     -68.79800000
S      -41.57650000     -31.37410000     -71.85720000
H      -43.24910000     -31.47620000     -73.57860000
