40
Properties=species:S:1:pos:R:3 #=T CELL(abcABC):=T 1.889726e+02=T 90.00000=T Traj:=T positionsangstrom=T Step:=T 0=T Bead:=T pbc="F F F"
C      -48.58640000     -32.00310000     -72.78630000
C      -48.28300000     -33.36520000     -73.06790000
C      -48.31750000     -34.22180000     -71.96770000
C      -48.65030000     -33.79320000     -70.64350000
C      -49.05730000     -32.44170000     -70.46050000
C      -48.86900000     -31.54420000     -71.52190000
H      -48.57400000     -31.29220000     -73.64140000
H      -47.96040000     -35.25730000     -72.03250000
H      -49.30760000     -32.13160000     -69.44220000
H      -49.07250000     -30.52020000     -71.33450000
C      -48.71250000     -34.75070000     -69.48200000
H      -49.61360000     -35.41010000     -69.54920000
H      -48.80550000     -34.12520000     -68.55270000
C      -47.91690000     -33.73570000     -74.49060000
H      -48.69720000     -34.44790000     -74.79710000
H      -47.88950000     -32.80640000     -75.06200000
S      -47.12180000     -35.70190000     -69.36550000
S      -46.34020000     -34.65230000     -74.60850000
C      -45.90760000     -34.32840000     -69.22880000
H      -46.15820000     -33.51650000     -69.86780000
H      -45.85990000     -33.98160000     -68.20710000
C      -44.90090000     -33.47180000     -74.13180000
H      -44.98330000     -32.57060000     -74.82330000
H      -44.04680000     -34.01800000     -74.49160000
C      -44.93640000     -33.35750000     -72.60660000
H      -45.84720000     -32.79590000     -72.23840000
H      -45.02020000     -34.36630000     -72.14450000
C      -44.53540000     -34.93620000     -69.66230000
H      -44.75370000     -35.57190000     -70.57800000
H      -44.26060000     -35.75360000     -68.99170000
C      -43.41240000     -33.93950000     -69.71700000
C      -42.49200000     -33.84670000     -68.70510000
C      -43.15420000     -33.05500000     -70.81890000
H      -42.59570000     -34.39670000     -67.78120000
C      -42.02890000     -32.30000000     -70.47440000
C      -43.76690000     -32.62850000     -71.99760000
C      -43.11470000     -31.53980000     -72.57730000
S      -41.28810000     -32.60300000     -68.98000000
S      -41.65060000     -31.06950000     -71.76440000
H      -43.24450000     -31.19800000     -73.61140000
