40
Properties=species:S:1:pos:R:3 #=T CELL(abcABC):=T 1.889726e+02=T 90.00000=T Traj:=T positionsangstrom=T Step:=T 0=T Bead:=T pbc="F F F"
C      -48.53070000     -32.11160000     -72.79950000
C      -48.25290000     -33.42680000     -73.06970000
C      -48.31530000     -34.35230000     -71.97500000
C      -48.67490000     -33.94650000     -70.69390000
C      -49.08560000     -32.56750000     -70.50470000
C      -49.01390000     -31.70590000     -71.54850000
H      -48.48370000     -31.42710000     -73.58520000
H      -48.05980000     -35.41070000     -72.12820000
H      -49.46050000     -32.32580000     -69.54700000
H      -49.36070000     -30.70210000     -71.43540000
C      -48.66350000     -34.99850000     -69.62680000
H      -49.24060000     -35.85020000     -70.01810000
H      -49.16470000     -34.65050000     -68.73540000
C      -47.95120000     -33.89300000     -74.46090000
H      -48.67290000     -34.60830000     -74.83960000
H      -48.01260000     -33.17020000     -75.25100000
S      -47.06660000     -35.71240000     -69.03190000
S      -46.24120000     -34.67430000     -74.64670000
C      -45.81520000     -34.41150000     -69.41340000
H      -46.22730000     -33.78400000     -70.25990000
H      -45.75930000     -33.73120000     -68.53310000
C      -45.17710000     -33.38750000     -74.05380000
H      -45.49100000     -32.38680000     -74.43590000
H      -44.18380000     -33.52780000     -74.36220000
C      -45.07920000     -33.17010000     -72.48530000
H      -45.89290000     -32.49820000     -72.24230000
H      -45.37280000     -34.06710000     -71.90390000
C      -44.48610000     -35.00810000     -69.81290000
H      -44.57410000     -35.56340000     -70.70730000
H      -44.18140000     -35.68500000     -68.99230000
C      -43.28280000     -33.98070000     -69.79300000
C      -42.40050000     -33.80250000     -68.76730000
C      -43.08430000     -32.90890000     -70.81670000
H      -42.29690000     -34.53430000     -67.96410000
C      -42.02970000     -32.11120000     -70.49240000
C      -43.76960000     -32.57800000     -72.00180000
C      -43.15810000     -31.50890000     -72.66630000
S      -41.22930000     -32.52240000     -69.05440000
S      -41.77590000     -30.86480000     -71.70260000
H      -43.52260000     -31.00640000     -73.56080000
