40
Properties=species:S:1:pos:R:3 #=T CELL(abcABC):=T 1.889726e+02=T 90.00000=T Traj:=T positionsangstrom=T Step:=T 0=T Bead:=T pbc="F F F"
C      -48.50290000     -32.32620000     -72.79350000
C      -48.30740000     -33.68760000     -73.06240000
C      -48.27090000     -34.66430000     -72.04350000
C      -48.52360000     -34.25030000     -70.73470000
C      -48.81550000     -32.88530000     -70.44930000
C      -48.68960000     -31.96010000     -71.48980000
H      -48.49590000     -31.48590000     -73.54840000
H      -47.91490000     -35.66550000     -72.17730000
H      -48.92110000     -32.51320000     -69.37590000
H      -48.89530000     -30.87810000     -71.28660000
C      -48.56120000     -35.28220000     -69.59100000
H      -49.23750000     -36.07480000     -69.85480000
H      -49.07200000     -34.75270000     -68.70880000
C      -48.10240000     -34.03420000     -74.52140000
H      -48.71920000     -34.88060000     -74.83300000
H      -48.38670000     -33.13740000     -75.11100000
S      -46.88790000     -35.89360000     -69.10130000
S      -46.20950000     -34.47940000     -74.84210000
C      -45.72120000     -34.38860000     -69.16550000
H      -46.19720000     -33.64850000     -69.80690000
H      -45.42820000     -34.05450000     -68.14600000
C      -45.31480000     -33.12380000     -74.00120000
H      -45.95050000     -32.31550000     -74.22120000
H      -44.36480000     -32.93960000     -74.53900000
C      -45.00420000     -33.33220000     -72.53210000
H      -46.02090000     -33.24060000     -72.08100000
H      -44.65920000     -34.36720000     -72.35180000
C      -44.38700000     -34.88840000     -69.76010000
H      -44.44010000     -35.20970000     -70.78110000
H      -44.06750000     -35.73550000     -69.16340000
C      -43.30570000     -33.83320000     -69.77100000
C      -42.41080000     -33.67880000     -68.75820000
C      -43.08960000     -32.88290000     -70.84710000
H      -42.28150000     -34.22420000     -67.82620000
C      -42.07030000     -31.95460000     -70.58500000
C      -43.92820000     -32.47790000     -71.98510000
C      -43.49850000     -31.23930000     -72.54990000
S      -41.23250000     -32.38030000     -69.06780000
S      -42.11200000     -30.61000000     -71.59420000
H      -43.97540000     -30.70890000     -73.34590000
