40
Properties=species:S:1:pos:R:3 #=T CELL(abcABC):=T 1.889726e+02=T 90.00000=T Traj:=T positionsangstrom=T Step:=T 0=T Bead:=T pbc="F F F"
C      -48.58930000     -32.48610000     -72.73650000
C      -48.25330000     -33.86240000     -73.01270000
C      -48.11810000     -34.78900000     -72.01290000
C      -48.32690000     -34.34650000     -70.63960000
C      -48.59380000     -33.01430000     -70.30810000
C      -48.70050000     -32.09870000     -71.41580000
H      -48.70850000     -31.82030000     -73.51680000
H      -47.70570000     -35.79790000     -72.25150000
H      -48.57910000     -32.61190000     -69.31770000
H      -48.84680000     -31.07100000     -71.08600000
C      -48.26950000     -35.23130000     -69.40620000
H      -49.10930000     -36.03870000     -69.46980000
H      -48.44160000     -34.67120000     -68.47520000
C      -48.12790000     -34.35030000     -74.44690000
H      -48.54420000     -35.38480000     -74.61810000
H      -48.59020000     -33.60650000     -75.10860000
S      -46.64850000     -36.17280000     -69.49180000
S      -46.29430000     -34.41220000     -74.89440000
C      -45.63750000     -34.60370000     -69.35070000
H      -46.07220000     -33.75230000     -69.93950000
H      -45.64300000     -34.32180000     -68.28690000
C      -45.35380000     -33.06820000     -74.01920000
H      -45.84880000     -32.12710000     -74.15940000
H      -44.42410000     -32.93610000     -74.52690000
C      -45.04430000     -33.40790000     -72.53300000
H      -45.89400000     -33.29390000     -71.83980000
H      -44.71520000     -34.44450000     -72.53660000
C      -44.18530000     -34.92590000     -69.78650000
H      -43.96790000     -35.35100000     -70.80530000
H      -43.72750000     -35.68740000     -69.12690000
C      -43.24920000     -33.70710000     -69.70990000
C      -42.32720000     -33.58190000     -68.73480000
C      -43.26320000     -32.66910000     -70.70030000
H      -42.24310000     -34.21340000     -67.88200000
C      -42.34280000     -31.66850000     -70.37930000
C      -43.98690000     -32.44550000     -71.94110000
C      -43.59010000     -31.24790000     -72.52030000
S      -41.30330000     -32.10330000     -69.02050000
S      -42.46030000     -30.37750000     -71.59240000
H      -44.04430000     -30.84150000     -73.44780000
