40
Properties=species:S:1:pos:R:3 #=T CELL(abcABC):=T 1.889726e+02=T 90.00000=T Traj:=T positionsangstrom=T Step:=T 0=T Bead:=T pbc="F F F"
C      -48.51710000     -35.12790000     -69.11650000
C      -47.96690000     -35.01830000     -70.40690000
C      -46.85380000     -35.73600000     -70.83920000
C      -46.12130000     -36.39370000     -69.88620000
C      -46.65210000     -36.62060000     -68.60260000
C      -47.87590000     -35.99900000     -68.22020000
H      -49.48290000     -34.71310000     -68.92050000
H      -46.49830000     -35.65880000     -71.80810000
H      -45.99460000     -37.20850000     -67.92680000
H      -48.24800000     -36.15460000     -67.26390000
C      -44.86490000     -37.00960000     -70.26970000
H      -44.66950000     -36.84530000     -71.36830000
H      -44.79860000     -38.05130000     -69.98840000
C      -48.70700000     -34.19030000     -71.45750000
H      -48.29800000     -34.05970000     -72.45160000
H      -49.61500000     -34.77340000     -71.64120000
S      -43.43390000     -36.33330000     -69.32140000
S      -49.24480000     -32.47780000     -71.03190000
C      -42.75970000     -35.17990000     -70.65200000
H      -41.91770000     -34.76990000     -70.17620000
H      -42.49530000     -35.85430000     -71.42680000
C      -47.80830000     -31.37320000     -71.51580000
H      -47.97030000     -30.36080000     -71.10980000
H      -47.92410000     -31.19350000     -72.60580000
C      -46.39480000     -31.89360000     -71.17320000
H      -46.18530000     -31.79030000     -70.12820000
H      -46.41110000     -33.01180000     -71.31320000
C      -43.82250000     -34.10390000     -71.01350000
H      -44.18860000     -33.60600000     -70.08670000
H      -44.63480000     -34.55850000     -71.53000000
C      -43.31110000     -33.04830000     -72.00240000
C      -42.05710000     -33.08080000     -72.52890000
C      -44.07920000     -31.84620000     -72.40180000
H      -41.29610000     -33.82420000     -72.40960000
C      -43.29800000     -31.04260000     -73.26310000
C      -45.35070000     -31.22810000     -72.06470000
C      -45.44580000     -30.00380000     -72.62120000
S      -41.79820000     -31.75160000     -73.62760000
S      -44.00960000     -29.48610000     -73.48740000
H      -46.38620000     -29.44000000     -72.63390000
