40
Properties=species:S:1:pos:R:3 #=T CELL(abcABC):=T 1.889726e+02=T 90.00000=T Traj:=T positionsangstrom=T Step:=T 0=T Bead:=T pbc="F F F"
C      -49.62820000     -34.89980000     -69.92160000
C      -48.91140000     -34.29280000     -70.97960000
C      -48.26670000     -33.05830000     -70.68130000
C      -48.32830000     -32.36940000     -69.46020000
C      -49.02700000     -33.05430000     -68.41470000
C      -49.64940000     -34.25410000     -68.65280000
H      -50.18620000     -35.84640000     -69.94470000
H      -47.77990000     -32.55600000     -71.56990000
H      -48.97610000     -32.73880000     -67.37980000
H      -50.07590000     -34.82020000     -67.78310000
C      -47.67780000     -31.07770000     -69.18990000
H      -48.21830000     -30.39110000     -68.49150000
H      -47.61780000     -30.56340000     -70.17090000
C      -48.73860000     -35.01540000     -72.30940000
H      -48.02050000     -35.81720000     -72.20370000
H      -49.69940000     -35.46180000     -72.57540000
S      -46.01480000     -31.34050000     -68.39570000
S      -48.08650000     -34.08090000     -73.66500000
C      -45.04590000     -32.42320000     -69.55080000
H      -44.40470000     -33.02150000     -68.96940000
H      -45.77150000     -33.05530000     -70.03120000
C      -46.22220000     -34.42750000     -73.51620000
H      -46.03470000     -34.76540000     -74.55540000
H      -46.07570000     -35.34080000     -72.97240000
C      -45.27720000     -33.26900000     -73.22600000
H      -45.48340000     -32.47150000     -73.98770000
H      -45.54980000     -32.93090000     -72.23920000
C      -44.11820000     -31.69100000     -70.54240000
H      -43.69190000     -30.87060000     -69.96770000
H      -44.76540000     -31.29520000     -71.33990000
C      -42.97020000     -32.59770000     -70.87920000
C      -41.84680000     -32.68100000     -70.12650000
C      -42.91820000     -33.30310000     -72.17820000
H      -41.73460000     -32.29320000     -69.11480000
C      -41.62450000     -33.91580000     -72.28680000
C      -43.82400000     -33.62160000     -73.22280000
C      -43.26370000     -34.46710000     -74.14290000
S      -40.49880000     -33.57160000     -71.07680000
S      -41.50320000     -34.76060000     -73.75140000
H      -43.76950000     -34.79060000     -75.08430000
