40
Properties=species:S:1:pos:R:3 #=T CELL(abcABC):=T 1.889726e+02=T 90.00000=T Traj:=T positionsangstrom=T Step:=T 0=T Bead:=T pbc="F F F"
C      -48.93440000     -34.55480000     -72.99910000
C      -48.53220000     -34.88090000     -71.69080000
C      -48.39850000     -33.86680000     -70.69280000
C      -48.75170000     -32.58380000     -70.97570000
C      -49.30970000     -32.21840000     -72.24440000
C      -49.31590000     -33.24990000     -73.22600000
H      -48.74950000     -35.37670000     -73.78180000
H      -48.04150000     -34.16000000     -69.66450000
H      -49.58680000     -31.13900000     -72.50310000
H      -49.64470000     -33.09790000     -74.20830000
C      -48.51220000     -31.59380000     -69.90250000
H      -48.18870000     -32.08270000     -69.01510000
H      -49.40830000     -31.04250000     -69.66660000
C      -48.32630000     -36.34700000     -71.33920000
H      -49.19750000     -36.77770000     -70.85200000
H      -48.24740000     -36.81940000     -72.31200000
S      -47.26420000     -30.35560000     -70.39380000
S      -46.87280000     -36.60690000     -70.20520000
C      -45.60050000     -31.14110000     -70.45820000
H      -44.91200000     -30.37640000     -70.10420000
H      -45.54400000     -32.06950000     -69.81290000
C      -45.29720000     -36.13100000     -71.09680000
H      -45.52120000     -35.87730000     -72.13590000
H      -44.67740000     -36.98690000     -70.96520000
C      -44.72220000     -34.90650000     -70.44770000
H      -45.42900000     -34.03850000     -70.56460000
H      -44.65130000     -35.13200000     -69.34480000
C      -45.14700000     -31.63580000     -71.91830000
H      -45.24560000     -30.85620000     -72.73630000
H      -45.66310000     -32.54860000     -72.16430000
C      -43.65840000     -31.93280000     -71.89720000
C      -42.82300000     -30.99570000     -72.33130000
C      -42.98630000     -33.13520000     -71.48370000
H      -43.11270000     -29.99530000     -72.62120000
C      -41.62850000     -33.05360000     -71.75510000
C      -43.36830000     -34.50530000     -71.03410000
C      -42.28650000     -35.32240000     -70.78160000
S      -41.09180000     -31.47480000     -72.22740000
S      -40.76980000     -34.52810000     -71.30980000
H      -42.26960000     -36.22700000     -70.16720000
