40
Properties=species:S:1:pos:R:3 #=T CELL(abcABC):=T 1.889726e+02=T 90.00000=T Traj:=T positionsangstrom=T Step:=T 0=T Bead:=T pbc="F F F"
C      -49.01660000     -34.62170000     -72.93540000
C      -48.46180000     -35.00290000     -71.56330000
C      -48.32500000     -33.99080000     -70.62700000
C      -48.63190000     -32.64260000     -70.97130000
C      -49.07200000     -32.29170000     -72.27240000
C      -49.25860000     -33.30770000     -73.23120000
H      -49.37890000     -35.44750000     -73.57410000
H      -47.94360000     -34.14650000     -69.64350000
H      -49.33440000     -31.21360000     -72.44880000
H      -49.78730000     -33.03940000     -74.12340000
C      -48.57550000     -31.52310000     -69.96620000
H      -48.28250000     -31.75300000     -68.89240000
H      -49.54960000     -30.95740000     -69.89290000
C      -48.16080000     -36.43370000     -71.40190000
H      -48.98020000     -37.04180000     -70.87620000
H      -47.98450000     -36.91550000     -72.36750000
S      -47.26880000     -30.27840000     -70.43680000
S      -46.75220000     -36.72250000     -70.27690000
C      -45.86780000     -31.48340000     -70.60060000
H      -45.10360000     -31.00860000     -70.03910000
H      -46.14650000     -32.38510000     -70.02560000
C      -45.46210000     -35.92580000     -71.26940000
H      -45.78180000     -35.54710000     -72.25520000
H      -44.64950000     -36.60480000     -71.47570000
C      -44.72290000     -34.82200000     -70.54800000
H      -45.33500000     -33.90800000     -70.68710000
H      -44.58320000     -34.90540000     -69.47410000
C      -45.24000000     -31.71940000     -71.95020000
H      -45.49130000     -30.85660000     -72.53720000
H      -45.78160000     -32.57910000     -72.47230000
C      -43.73450000     -31.94120000     -71.95420000
C      -42.86470000     -30.99020000     -72.41490000
C      -43.02680000     -33.17450000     -71.59980000
H      -43.16430000     -30.13550000     -72.91680000
C      -41.62610000     -32.95710000     -71.59150000
C      -43.36130000     -34.47110000     -71.05320000
C      -42.22530000     -35.18020000     -70.65700000
S      -41.15890000     -31.41490000     -72.23590000
S      -40.76160000     -34.39240000     -71.02480000
H      -42.20830000     -36.10630000     -70.09910000
