40
Properties=species:S:1:pos:R:3 #=T CELL(abcABC):=T 1.889726e+02=T 90.00000=T Traj:=T positionsangstrom=T Step:=T 0=T Bead:=T pbc="F F F"
C      -49.06660000     -32.71220000     -72.19760000
C      -48.45500000     -33.84700000     -72.82030000
C      -48.13500000     -34.92330000     -71.94070000
C      -48.32720000     -34.87590000     -70.60070000
C      -49.12580000     -33.79000000     -70.04980000
C      -49.49670000     -32.75580000     -70.82430000
H      -49.29510000     -31.84180000     -72.73410000
H      -47.40800000     -35.67020000     -72.34870000
H      -49.31750000     -33.78600000     -68.95800000
H      -50.11580000     -31.94050000     -70.52660000
C      -47.74440000     -35.92400000     -69.60490000
H      -48.27680000     -36.85480000     -69.60120000
H      -47.76520000     -35.33220000     -68.63970000
C      -48.03460000     -33.89990000     -74.35740000
H      -48.76210000     -34.61630000     -74.86420000
H      -48.28000000     -32.90690000     -74.75730000
S      -46.03130000     -36.34460000     -69.91250000
S      -46.36010000     -34.42880000     -74.84170000
C      -45.23350000     -34.73590000     -69.53450000
H      -45.70220000     -33.87460000     -69.99670000
H      -45.32900000     -34.56500000     -68.44960000
C      -45.41280000     -33.11520000     -73.96790000
H      -45.97320000     -32.19850000     -73.90470000
H      -44.57340000     -32.80170000     -74.64190000
C      -44.90560000     -33.50530000     -72.49580000
H      -45.70410000     -33.68860000     -71.77750000
H      -44.36380000     -34.46100000     -72.48840000
C      -43.70330000     -34.89170000     -69.91200000
H      -43.68880000     -35.28880000     -70.92890000
H      -43.26050000     -35.60750000     -69.19890000
C      -42.97300000     -33.57020000     -69.78210000
C      -42.02890000     -33.24250000     -68.89490000
C      -43.28780000     -32.43170000     -70.67070000
H      -41.65430000     -33.84110000     -68.08470000
C      -42.52230000     -31.28320000     -70.40750000
C      -43.99910000     -32.40930000     -71.95570000
C      -43.72750000     -31.20550000     -72.60650000
S      -41.45340000     -31.51710000     -69.06040000
S      -42.82180000     -30.10340000     -71.60220000
H      -44.27950000     -30.83610000     -73.48890000
