40
Properties=species:S:1:pos:R:3 #=T CELL(abcABC):=T 1.889726e+02=T 90.00000=T Traj:=T positionsangstrom=T Step:=T 0=T Bead:=T pbc="F F F"
C      -49.29830000     -32.90270000     -72.18780000
C      -48.49280000     -33.93190000     -72.80260000
C      -47.96510000     -34.91660000     -71.96490000
C      -48.26180000     -34.92710000     -70.54990000
C      -49.03530000     -33.98050000     -70.01150000
C      -49.49220000     -32.88690000     -70.83300000
H      -49.76970000     -32.12170000     -72.74760000
H      -47.46790000     -35.81690000     -72.45060000
H      -49.26630000     -33.87700000     -68.94960000
H      -50.04860000     -32.06650000     -70.46000000
C      -47.76600000     -36.06130000     -69.71960000
H      -48.28150000     -37.00970000     -69.95820000
H      -48.06270000     -35.87710000     -68.69150000
C      -48.24900000     -33.86550000     -74.24690000
H      -48.89780000     -34.53470000     -74.78040000
H      -48.59330000     -32.88760000     -74.65910000
S      -45.93040000     -36.29870000     -69.97980000
S      -46.47690000     -34.36770000     -74.77380000
C      -45.03700000     -34.90050000     -69.16820000
H      -45.51420000     -33.94970000     -69.38420000
H      -45.05520000     -35.04010000     -68.05220000
C      -45.28810000     -33.06090000     -74.12530000
H      -45.76560000     -32.07830000     -74.28450000
H      -44.40110000     -33.12280000     -74.82680000
C      -44.90600000     -33.39110000     -72.59370000
H      -45.84180000     -33.52070000     -72.02280000
H      -44.33980000     -34.33590000     -72.53050000
C      -43.56360000     -34.92980000     -69.65680000
H      -43.44880000     -35.46030000     -70.60730000
H      -42.85820000     -35.44380000     -69.01430000
C      -43.00170000     -33.51290000     -69.79790000
C      -42.14230000     -33.05130000     -68.85340000
C      -43.29210000     -32.49570000     -70.79540000
H      -41.72500000     -33.61170000     -68.00130000
C      -42.50880000     -31.39080000     -70.54870000
C      -44.04820000     -32.32280000     -71.99050000
C      -43.82190000     -31.07010000     -72.55180000
S      -41.60290000     -31.39710000     -69.06920000
S      -42.66730000     -30.10890000     -71.69200000
H      -44.17240000     -30.68960000     -73.53320000
