40
Properties=species:S:1:pos:R:3 #=T CELL(abcABC):=T 1.889726e+02=T 90.00000=T Traj:=T positionsangstrom=T Step:=T 0=T Bead:=T pbc="F F F"
C      -49.30530000     -32.96210000     -72.11950000
C      -48.50130000     -33.91350000     -72.75000000
C      -47.95110000     -35.01080000     -71.99810000
C      -48.12580000     -34.99160000     -70.60830000
C      -48.93860000     -34.02390000     -69.98550000
C      -49.52760000     -32.98780000     -70.73210000
H      -49.80950000     -32.15740000     -72.64010000
H      -47.31450000     -35.74280000     -72.46850000
H      -49.23780000     -34.10640000     -68.89240000
H      -50.14520000     -32.17830000     -70.28710000
C      -47.52740000     -36.15090000     -69.75910000
H      -48.03060000     -37.13140000     -70.16820000
H      -47.84670000     -36.07310000     -68.72440000
C      -48.28680000     -33.81430000     -74.26160000
H      -48.95340000     -34.39790000     -74.90530000
H      -48.32280000     -32.74350000     -74.56090000
S      -45.75570000     -36.56350000     -69.93000000
S      -46.62320000     -34.42710000     -74.71760000
C      -45.09110000     -34.93660000     -69.18620000
H      -45.74970000     -34.15400000     -69.56770000
H      -45.14580000     -35.04410000     -68.11360000
C      -45.55180000     -33.01670000     -74.01890000
H      -46.14730000     -32.08670000     -73.94360000
H      -44.71800000     -32.92340000     -74.61730000
C      -45.01010000     -33.35630000     -72.53870000
H      -45.86540000     -33.34480000     -71.84530000
H      -44.62950000     -34.41390000     -72.54950000
C      -43.66160000     -34.70380000     -69.70750000
H      -43.59510000     -35.15650000     -70.71090000
H      -43.04640000     -35.37180000     -69.07730000
C      -43.14280000     -33.30140000     -69.68980000
C      -42.37380000     -32.80670000     -68.65850000
C      -43.20120000     -32.39880000     -70.84330000
H      -42.08260000     -33.36780000     -67.75290000
C      -42.43960000     -31.26230000     -70.59880000
C      -43.97600000     -32.36430000     -72.06930000
C      -43.69300000     -31.16520000     -72.74580000
S      -41.57460000     -31.28780000     -69.10090000
S      -42.63360000     -30.06210000     -71.82880000
H      -44.13980000     -30.84350000     -73.65480000
