40
Properties=species:S:1:pos:R:3 #=T CELL(abcABC):=T 1.889726e+02=T 90.00000=T Traj:=T positionsangstrom=T Step:=T 0=T Bead:=T pbc="F F F"
C      -49.09030000     -33.16360000     -71.73260000
C      -48.47750000     -34.22950000     -72.36160000
C      -47.96900000     -35.32520000     -71.62620000
C      -48.07080000     -35.34800000     -70.24670000
C      -48.71730000     -34.27930000     -69.55650000
C      -49.10890000     -33.16730000     -70.33010000
H      -49.59600000     -32.35680000     -72.29190000
H      -47.29140000     -36.11780000     -72.06290000
H      -48.79780000     -34.37300000     -68.48490000
H      -49.62820000     -32.37840000     -69.83540000
C      -47.46030000     -36.50650000     -69.52770000
H      -47.82450000     -37.38510000     -70.12060000
H      -47.76010000     -36.55570000     -68.50690000
C      -48.29040000     -34.14000000     -73.86540000
H      -48.90210000     -34.89030000     -74.35730000
H      -48.60620000     -33.14810000     -74.18230000
S      -45.59400000     -36.65700000     -69.72270000
S      -46.55120000     -34.38570000     -74.68160000
C      -45.10580000     -34.90790000     -69.69520000
H      -45.91280000     -34.44680000     -70.24960000
H      -45.20330000     -34.62310000     -68.63660000
C      -45.53550000     -32.97980000     -74.17940000
H      -46.17030000     -32.10010000     -73.99330000
H      -44.84010000     -32.73050000     -75.02220000
C      -44.69800000     -33.30760000     -72.95350000
H      -45.24780000     -33.82700000     -72.23780000
H      -43.86730000     -33.95890000     -73.28300000
C      -43.72980000     -34.65010000     -70.17200000
H      -43.58230000     -35.07620000     -71.16110000
H      -43.04070000     -35.26510000     -69.53500000
C      -43.20100000     -33.18000000     -70.05920000
C      -42.41310000     -32.80640000     -69.00790000
C      -43.30490000     -32.17860000     -71.05040000
H      -42.06420000     -33.39450000     -68.20980000
C      -42.68930000     -30.95540000     -70.67670000
C      -44.05000000     -32.08240000     -72.31550000
C      -43.85860000     -30.85400000     -72.91060000
S      -41.90530000     -31.09520000     -69.14190000
S      -42.80810000     -29.80840000     -71.98240000
H      -44.17410000     -30.48770000     -73.90040000
