40
Properties=species:S:1:pos:R:3 #=T CELL(abcABC):=T 1.889726e+02=T 90.00000=T Traj:=T positionsangstrom=T Step:=T 0=T Bead:=T pbc="F F F"
C      -48.79190000     -33.08230000     -71.59810000
C      -48.27740000     -34.19090000     -72.35510000
C      -47.79080000     -35.31010000     -71.69670000
C      -47.89520000     -35.37310000     -70.25730000
C      -48.26420000     -34.22280000     -69.52750000
C      -48.77770000     -33.10790000     -70.23300000
H      -49.14290000     -32.24160000     -72.16540000
H      -47.35470000     -36.12280000     -72.21670000
H      -48.21620000     -34.23930000     -68.42570000
H      -49.02180000     -32.18370000     -69.64300000
C      -47.26920000     -36.56030000     -69.65250000
H      -47.64960000     -37.48650000     -70.06490000
H      -47.65180000     -36.56610000     -68.59100000
C      -48.41790000     -34.23880000     -73.84440000
H      -49.01530000     -35.06760000     -74.14980000
H      -48.94370000     -33.30460000     -74.10980000
S      -45.43240000     -36.45810000     -69.74010000
S      -46.78750000     -34.56730000     -74.80240000
C      -44.83770000     -34.81520000     -69.34330000
H      -45.50320000     -33.99490000     -69.54310000
H      -44.67440000     -34.75910000     -68.33890000
C      -45.58350000     -33.24720000     -74.26550000
H      -46.16470000     -32.31750000     -74.22840000
H      -44.87580000     -33.11470000     -75.08750000
C      -44.77470000     -33.46110000     -72.95600000
H      -45.43950000     -33.97180000     -72.17920000
H      -43.98680000     -34.15870000     -73.18840000
C      -43.59600000     -34.68630000     -70.18260000
H      -43.75680000     -34.95720000     -71.24990000
H      -42.77330000     -35.26620000     -69.71900000
C      -43.08210000     -33.25140000     -70.11100000
C      -42.49010000     -32.74790000     -68.98170000
C      -43.43130000     -32.20770000     -71.06150000
H      -42.22040000     -33.27670000     -68.03840000
C      -42.82640000     -30.99600000     -70.76000000
C      -44.19950000     -32.15550000     -72.25310000
C      -44.28330000     -30.86680000     -72.75390000
S      -41.95880000     -30.99690000     -69.26550000
S      -43.16150000     -29.73810000     -71.92870000
H      -44.88120000     -30.52180000     -73.68400000
