40
Properties=species:S:1:pos:R:3 #=T CELL(abcABC):=T 1.889726e+02=T 90.00000=T Traj:=T positionsangstrom=T Step:=T 0=T Bead:=T pbc="F F F"
C      -48.57220000     -32.99860000     -71.66760000
C      -48.20750000     -34.14510000     -72.35730000
C      -47.79710000     -35.29060000     -71.67390000
C      -47.73620000     -35.25830000     -70.26240000
C      -47.93590000     -34.02960000     -69.58860000
C      -48.33060000     -32.93260000     -70.29430000
H      -48.78190000     -32.05170000     -72.24400000
H      -47.53580000     -36.24510000     -72.13630000
H      -47.76010000     -33.89460000     -68.50470000
H      -48.46520000     -32.02410000     -69.82430000
C      -47.31360000     -36.47660000     -69.55600000
H      -47.62550000     -37.38560000     -70.12580000
H      -47.56690000     -36.60720000     -68.47900000
C      -48.38110000     -34.30200000     -73.83900000
H      -49.07680000     -35.12890000     -74.03070000
H      -48.92210000     -33.49340000     -74.20950000
S      -45.40000000     -36.68130000     -69.63950000
S      -46.80640000     -34.57270000     -74.78240000
C      -44.81660000     -34.88380000     -69.51290000
H      -45.52330000     -34.25750000     -70.02800000
H      -44.73920000     -34.72800000     -68.45720000
C      -45.86030000     -33.13960000     -74.10490000
H      -46.59670000     -32.40800000     -73.87380000
H      -45.21710000     -32.76020000     -74.86640000
C      -45.09070000     -33.53100000     -72.83080000
H      -45.71640000     -33.94710000     -72.06800000
H      -44.19600000     -34.21290000     -73.06150000
C      -43.35870000     -34.69310000     -70.08110000
H      -43.06610000     -34.97440000     -71.07390000
H      -42.72460000     -35.31050000     -69.41900000
C      -43.02610000     -33.20880000     -69.97020000
C      -42.12920000     -32.64260000     -69.07190000
C      -43.52240000     -32.23050000     -70.96300000
H      -41.52840000     -33.10500000     -68.28860000
C      -43.03460000     -30.92480000     -70.74860000
C      -44.37000000     -32.33310000     -72.18720000
C      -44.45080000     -31.07940000     -72.78650000
S      -41.96120000     -30.82630000     -69.37350000
S      -43.45720000     -29.84220000     -72.07460000
H      -44.98090000     -30.87800000     -73.70710000
