40
Properties=species:S:1:pos:R:3 #=T CELL(abcABC):=T 1.889726e+02=T 90.00000=T Traj:=T positionsangstrom=T Step:=T 0=T Bead:=T pbc="F F F"
C      -48.47670000     -32.98430000     -71.75680000
C      -48.36860000     -34.28670000     -72.39110000
C      -47.97700000     -35.37000000     -71.64600000
C      -47.81940000     -35.24730000     -70.26670000
C      -48.05760000     -34.00330000     -69.61860000
C      -48.45540000     -32.86540000     -70.37850000
H      -48.75430000     -32.11880000     -72.33250000
H      -47.63040000     -36.30740000     -72.09560000
H      -47.86460000     -33.90670000     -68.56130000
H      -48.55430000     -31.88350000     -69.89400000
C      -47.09940000     -36.31350000     -69.42940000
H      -47.58240000     -37.33070000     -69.54350000
H      -47.33510000     -36.00580000     -68.44070000
C      -48.42640000     -34.33170000     -73.89480000
H      -49.05910000     -35.20600000     -74.15780000
H      -48.77570000     -33.35840000     -74.39160000
S      -45.30250000     -36.51710000     -69.68020000
S      -46.82310000     -34.57950000     -74.71810000
C      -44.68720000     -34.84060000     -69.24020000
H      -45.46640000     -34.19100000     -69.63950000
H      -44.63760000     -34.46200000     -68.22350000
C      -45.74570000     -33.22060000     -74.05880000
H      -46.35720000     -32.29960000     -73.92540000
H      -45.06140000     -32.90480000     -74.89060000
C      -45.01280000     -33.50500000     -72.75270000
H      -45.66390000     -34.02570000     -72.05690000
H      -44.21190000     -34.16220000     -72.97630000
C      -43.31350000     -34.69740000     -70.02950000
H      -43.58040000     -34.97390000     -71.04960000
H      -42.45540000     -35.33970000     -69.57520000
C      -42.94930000     -33.25290000     -70.16370000
C      -42.17810000     -32.68100000     -69.15450000
C      -43.48660000     -32.27220000     -71.08800000
H      -41.83770000     -33.20170000     -68.30700000
C      -42.90720000     -31.08170000     -70.90740000
C      -44.38770000     -32.31710000     -72.24170000
C      -44.51740000     -31.02040000     -72.75190000
S      -41.93000000     -31.02660000     -69.50030000
S      -43.59600000     -29.76000000     -71.89450000
H      -45.14850000     -30.70790000     -73.51650000
