40
Properties=species:S:1:pos:R:3 #=T CELL(abcABC):=T 1.889726e+02=T 90.00000=T Traj:=T positionsangstrom=T Step:=T 0=T Bead:=T pbc="F F F"
C      -43.18390000     -32.47990000     -68.35610000
C      -43.21430000     -33.84650000     -68.57400000
C      -44.44960000     -34.52230000     -68.44060000
C      -45.60020000     -33.77130000     -68.15040000
C      -45.56600000     -32.38170000     -67.92690000
C      -44.36340000     -31.73220000     -68.04590000
H      -42.20780000     -32.00780000     -68.35540000
H      -44.48080000     -35.54410000     -68.90180000
H      -46.46600000     -31.97820000     -67.59250000
H      -44.28470000     -30.59760000     -67.95620000
C      -46.89960000     -34.47910000     -67.99870000
H      -47.79660000     -33.83300000     -67.86510000
H      -46.87090000     -35.07920000     -67.14290000
C      -42.02900000     -34.69320000     -68.98270000
H      -40.98560000     -34.14480000     -68.89040000
H      -42.02010000     -35.50980000     -68.31600000
S      -47.07320000     -35.59790000     -69.53680000
S      -42.02950000     -35.38720000     -70.71480000
C      -47.27530000     -34.21980000     -70.81800000
H      -48.21130000     -33.74950000     -70.46370000
H      -46.40180000     -33.59030000     -70.70530000
C      -42.71780000     -34.09290000     -71.87550000
H      -42.39780000     -34.39000000     -72.86670000
H      -42.11030000     -33.20710000     -71.81590000
C      -44.21180000     -33.81530000     -71.71330000
H      -44.65610000     -34.80890000     -71.70890000
H      -44.39140000     -33.43560000     -70.73900000
C      -47.50900000     -34.70270000     -72.21470000
H      -48.47070000     -35.14670000     -72.31620000
H      -46.87190000     -35.53180000     -72.49040000
C      -47.33390000     -33.52890000     -73.18570000
C      -48.42130000     -32.96990000     -73.83690000
C      -46.14330000     -32.75240000     -73.27500000
H      -49.44910000     -33.41820000     -73.88360000
C      -46.30910000     -31.76260000     -74.22340000
C      -44.77130000     -32.91320000     -72.79130000
C      -43.97400000     -31.93850000     -73.36460000
S      -47.97740000     -31.59490000     -74.73760000
S      -44.87410000     -30.82830000     -74.37390000
H      -42.91410000     -31.85150000     -73.28610000
