40
Properties=species:S:1:pos:R:3 #=T CELL(abcABC):=T 1.889726e+02=T 90.00000=T Traj:=T positionsangstrom=T Step:=T 0=T Bead:=T pbc="F F F"
C      -43.11130000     -32.39900000     -68.43330000
C      -43.23120000     -33.76690000     -68.68320000
C      -44.47010000     -34.40740000     -68.63400000
C      -45.57540000     -33.73060000     -68.17740000
C      -45.43920000     -32.37230000     -67.81210000
C      -44.22720000     -31.71320000     -67.95960000
H      -42.20290000     -31.92310000     -68.70140000
H      -44.50180000     -35.42820000     -68.77060000
H      -46.28290000     -31.73790000     -67.50000000
H      -44.08440000     -30.64440000     -67.83690000
C      -46.90450000     -34.46670000     -68.08390000
H      -47.63280000     -33.69030000     -67.90140000
H      -46.95940000     -35.16310000     -67.18540000
C      -41.96260000     -34.49570000     -69.03850000
H      -41.13460000     -33.84160000     -69.19000000
H      -41.59870000     -35.22600000     -68.27870000
S      -47.36780000     -35.54890000     -69.45530000
S      -42.13900000     -35.37980000     -70.61240000
C      -47.51440000     -34.30190000     -70.79290000
H      -48.38280000     -33.70120000     -70.62150000
H      -46.67840000     -33.57090000     -70.71100000
C      -42.68450000     -34.05070000     -71.79090000
H      -42.39450000     -34.42400000     -72.75520000
H      -42.23180000     -33.07740000     -71.45180000
C      -44.16300000     -33.86450000     -71.79060000
H      -44.79650000     -34.75430000     -72.02360000
H      -44.56310000     -33.61410000     -70.80900000
C      -47.42410000     -34.78780000     -72.26490000
H      -48.36520000     -35.30790000     -72.50500000
H      -46.57250000     -35.48830000     -72.39470000
C      -47.25900000     -33.61270000     -73.13560000
C      -48.30670000     -33.13130000     -73.85130000
C      -46.03760000     -32.86390000     -73.28190000
H      -49.35190000     -33.57210000     -73.78000000
C      -46.22840000     -31.86710000     -74.22090000
C      -44.67370000     -32.87520000     -72.74840000
C      -43.97500000     -31.89310000     -73.38050000
S      -47.88290000     -31.62090000     -74.71040000
S      -44.86930000     -30.88790000     -74.45660000
H      -42.90640000     -31.76190000     -73.31410000
