40
Properties=species:S:1:pos:R:3 #=T CELL(abcABC):=T 1.889726e+02=T 90.00000=T Traj:=T positionsangstrom=T Step:=T 0=T Bead:=T pbc="F F F"
C      -46.66910000     -35.23530000     -68.50170000
C      -45.50120000     -35.81380000     -69.04210000
C      -44.31420000     -34.99000000     -69.01390000
C      -44.35020000     -33.76100000     -68.36620000
C      -45.47840000     -33.37720000     -67.60140000
C      -46.67610000     -34.06970000     -67.75670000
H      -47.61790000     -35.77770000     -68.51120000
H      -43.40500000     -35.39490000     -69.53270000
H      -45.41930000     -32.54750000     -66.85110000
H      -47.56240000     -33.74890000     -67.25710000
C      -43.15030000     -33.06440000     -68.07970000
H      -42.25760000     -33.76900000     -68.35040000
H      -43.06060000     -32.94810000     -67.05120000
C      -45.59500000     -37.19750000     -69.71820000
H      -45.16230000     -37.91050000     -69.08580000
H      -46.65320000     -37.34180000     -69.82750000
S      -42.95110000     -31.34130000     -68.69480000
S      -44.53840000     -37.40030000     -71.18960000
C      -43.54880000     -31.52010000     -70.50090000
H      -43.15450000     -30.67790000     -71.03780000
H      -43.19530000     -32.47890000     -71.03960000
C      -45.42060000     -36.16590000     -72.37260000
H      -46.41820000     -36.58250000     -72.38060000
H      -44.99780000     -36.46720000     -73.36270000
C      -45.21840000     -34.74110000     -72.11230000
H      -45.63850000     -34.37930000     -71.14800000
H      -44.08810000     -34.50990000     -72.03930000
C      -45.00510000     -31.29600000     -70.66470000
H      -45.13490000     -30.25740000     -70.30730000
H      -45.62100000     -31.83410000     -69.97930000
C      -45.56340000     -31.24540000     -72.10890000
C      -45.80890000     -30.04770000     -72.68780000
C      -45.81110000     -32.34040000     -73.07160000
H      -45.63810000     -29.07330000     -72.14800000
C      -46.32820000     -31.82670000     -74.24520000
C      -45.93090000     -33.79080000     -73.11880000
C      -46.52780000     -34.20640000     -74.24700000
S      -46.38550000     -30.07090000     -74.42680000
S      -46.95750000     -32.96600000     -75.29230000
H      -46.79480000     -35.27420000     -74.45810000
