40
Properties=species:S:1:pos:R:3 #=T CELL(abcABC):=T 1.889726e+02=T 90.00000=T Traj:=T positionsangstrom=T Step:=T 0=T Bead:=T pbc="F F F"
C      -43.37130000     -32.24600000     -68.16740000
C      -43.35580000     -33.59600000     -68.51010000
C      -44.55710000     -34.23520000     -68.61970000
C      -45.81880000     -33.70520000     -68.21380000
C      -45.80740000     -32.32760000     -67.88860000
C      -44.58320000     -31.65140000     -67.82200000
H      -42.44000000     -31.68860000     -68.09930000
H      -44.53560000     -35.33240000     -68.83760000
H      -46.67470000     -31.82450000     -67.51110000
H      -44.55500000     -30.66870000     -67.28830000
C      -47.04210000     -34.62380000     -67.97500000
H      -47.86190000     -33.99500000     -67.54190000
H      -46.64680000     -35.29730000     -67.15320000
C      -42.04150000     -34.31180000     -68.75670000
H      -41.25750000     -33.58630000     -68.70040000
H      -41.86090000     -34.97610000     -67.98070000
S      -47.65680000     -35.53530000     -69.40410000
S      -41.96590000     -35.22390000     -70.35510000
C      -47.89000000     -34.10080000     -70.68110000
H      -48.93790000     -33.86460000     -70.76660000
H      -47.28550000     -33.27740000     -70.22970000
C      -42.53090000     -33.92680000     -71.63570000
H      -41.97590000     -33.94840000     -72.52500000
H      -42.26150000     -33.01560000     -71.17060000
C      -44.03200000     -33.99080000     -71.90700000
H      -44.20440000     -35.03770000     -72.12320000
H      -44.52530000     -33.74200000     -70.99210000
C      -47.43240000     -34.63450000     -72.01530000
H      -48.21360000     -35.36250000     -72.39760000
H      -46.46810000     -35.11850000     -71.87830000
C      -47.21220000     -33.51430000     -73.04100000
C      -48.25150000     -32.92420000     -73.75880000
C      -45.95040000     -32.95230000     -73.45090000
H      -49.28000000     -32.94190000     -73.65270000
C      -46.06690000     -31.93760000     -74.38370000
C      -44.51020000     -33.05940000     -72.96530000
C      -43.70580000     -32.23980000     -73.68890000
S      -47.68120000     -31.70460000     -74.91390000
S      -44.55940000     -31.24490000     -74.88990000
H      -42.66730000     -32.03600000     -73.57330000
