40
Properties=species:S:1:pos:R:3 #=T CELL(abcABC):=T 1.889726e+02=T 90.00000=T Traj:=T positionsangstrom=T Step:=T 0=T Bead:=T pbc="F F F"
C      -43.46170000     -32.24340000     -68.04590000
C      -43.44160000     -33.59420000     -68.37860000
C      -44.71080000     -34.27940000     -68.35780000
C      -45.92410000     -33.63510000     -67.93160000
C      -45.76870000     -32.29370000     -67.49060000
C      -44.59400000     -31.61300000     -67.56360000
H      -42.55460000     -31.66570000     -68.22360000
H      -44.65190000     -35.34600000     -68.60120000
H      -46.67520000     -31.80330000     -67.24040000
H      -44.66980000     -30.48810000     -67.37280000
C      -47.31180000     -34.25840000     -68.00750000
H      -48.12330000     -33.54520000     -68.04080000
H      -47.46750000     -34.97070000     -67.18120000
C      -42.10230000     -34.10920000     -68.83840000
H      -41.45840000     -33.22450000     -69.04430000
H      -41.66260000     -34.89030000     -68.08680000
S      -47.54960000     -35.39370000     -69.47160000
S      -42.10570000     -35.23840000     -70.36530000
C      -47.37420000     -34.11910000     -70.74560000
H      -48.16440000     -33.38240000     -70.57860000
H      -46.41010000     -33.59230000     -70.58220000
C      -42.56200000     -34.17580000     -71.78930000
H      -42.24200000     -34.74160000     -72.65830000
H      -41.95250000     -33.19710000     -71.62380000
C      -43.98350000     -33.95320000     -71.89890000
H      -44.45840000     -34.93050000     -72.15390000
H      -44.46680000     -33.61640000     -70.95680000
C      -47.27950000     -34.71490000     -72.14550000
H      -48.15970000     -35.36030000     -72.32300000
H      -46.46540000     -35.42300000     -72.10720000
C      -47.13100000     -33.68290000     -73.23370000
C      -48.21040000     -33.10540000     -73.86060000
C      -45.89340000     -33.00020000     -73.48330000
H      -49.21340000     -33.45010000     -73.81910000
C      -46.05870000     -31.90740000     -74.37930000
C      -44.49730000     -33.09970000     -73.03410000
C      -43.68140000     -32.23120000     -73.69230000
S      -47.71870000     -31.77490000     -74.92930000
S      -44.56210000     -31.28710000     -74.96170000
H      -42.60370000     -32.09140000     -73.78700000
