40
Properties=species:S:1:pos:R:3 #=T CELL(abcABC):=T 1.889726e+02=T 90.00000=T Traj:=T positionsangstrom=T Step:=T 0=T Bead:=T pbc="F F F"
C      -43.56300000     -32.07340000     -67.91670000
C      -43.54620000     -33.40020000     -68.41400000
C      -44.73620000     -34.14000000     -68.32600000
C      -45.91630000     -33.60140000     -67.81580000
C      -45.87460000     -32.31700000     -67.34020000
C      -44.72000000     -31.56260000     -67.39870000
H      -42.60300000     -31.49720000     -67.95170000
H      -44.80300000     -35.05450000     -68.82280000
H      -46.75500000     -31.87900000     -66.81900000
H      -44.71480000     -30.52050000     -67.02650000
C      -47.18620000     -34.44590000     -67.76020000
H      -48.07230000     -33.82780000     -67.47100000
H      -47.24000000     -35.24730000     -66.99770000
C      -42.24780000     -34.16180000     -68.87210000
H      -41.55730000     -33.38550000     -69.05630000
H      -41.79350000     -34.74900000     -68.11390000
S      -47.45060000     -35.27690000     -69.36710000
S      -42.35840000     -35.32540000     -70.29170000
C      -47.20680000     -33.98320000     -70.73850000
H      -47.97590000     -33.19930000     -70.69560000
H      -46.30540000     -33.51490000     -70.70720000
C      -42.61900000     -34.29490000     -71.82520000
H      -42.19030000     -34.80510000     -72.66380000
H      -42.09140000     -33.35240000     -71.70410000
C      -44.02420000     -33.93590000     -71.99140000
H      -44.57000000     -34.85590000     -71.90400000
H      -44.22990000     -33.51290000     -70.98670000
C      -47.29860000     -34.70200000     -72.15980000
H      -48.30640000     -35.02660000     -72.28400000
H      -46.70370000     -35.65500000     -72.25190000
C      -47.07980000     -33.64050000     -73.23580000
C      -48.14320000     -33.11300000     -73.92200000
C      -45.80450000     -33.01280000     -73.58510000
H      -49.15630000     -33.50580000     -73.82710000
C      -45.98200000     -32.02500000     -74.59620000
C      -44.42890000     -33.11180000     -73.16860000
C      -43.58470000     -32.24580000     -73.82920000
S      -47.67830000     -31.94040000     -75.11540000
S      -44.45280000     -31.24980000     -74.99140000
H      -42.49140000     -31.96500000     -73.67620000
