40
Properties=species:S:1:pos:R:3 #=T CELL(abcABC):=T 1.889726e+02=T 90.00000=T Traj:=T positionsangstrom=T Step:=T 0=T Bead:=T pbc="F F F"
C      -43.89540000     -32.02020000     -67.72590000
C      -43.70820000     -33.38350000     -68.08170000
C      -44.79770000     -34.25880000     -67.97920000
C      -46.07170000     -33.74050000     -67.83470000
C      -46.21600000     -32.34980000     -67.49180000
C      -45.15300000     -31.53550000     -67.47770000
H      -43.01680000     -31.38620000     -67.79830000
H      -44.61430000     -35.38830000     -68.24320000
H      -47.19430000     -32.02390000     -67.26810000
H      -45.40260000     -30.50180000     -67.12370000
C      -47.27060000     -34.60000000     -68.00840000
H      -48.16740000     -34.03380000     -67.80990000
H      -47.26120000     -35.36750000     -67.30230000
C      -42.32240000     -33.98620000     -68.30380000
H      -41.65530000     -33.06080000     -68.29750000
H      -41.92190000     -34.67990000     -67.51430000
S      -47.43880000     -35.51890000     -69.63800000
S      -42.40710000     -34.93680000     -69.83080000
C      -47.32420000     -34.14270000     -71.00270000
H      -48.25090000     -33.51660000     -70.91980000
H      -46.53200000     -33.46020000     -70.60730000
C      -42.73290000     -33.84650000     -71.31600000
H      -42.15150000     -34.26040000     -72.15090000
H      -42.23190000     -32.78550000     -71.18610000
C      -44.25790000     -33.73060000     -71.75800000
H      -44.62730000     -34.74050000     -71.97320000
H      -44.84760000     -33.35450000     -70.90760000
C      -47.18950000     -34.81430000     -72.37090000
H      -48.12750000     -35.34290000     -72.52100000
H      -46.44080000     -35.61360000     -72.51790000
C      -46.91670000     -33.81600000     -73.51470000
C      -47.88490000     -33.35410000     -74.35560000
C      -45.65490000     -33.09830000     -73.74290000
H      -48.93170000     -33.61120000     -74.29630000
C      -45.75110000     -32.13860000     -74.75290000
C      -44.42680000     -32.94720000     -72.99880000
C      -43.54030000     -32.00490000     -73.54610000
S      -47.35900000     -32.09100000     -75.48150000
S      -44.22890000     -31.26330000     -75.09250000
H      -42.56720000     -31.86650000     -73.25170000
