40
Properties=species:S:1:pos:R:3 #=T CELL(abcABC):=T 1.889726e+02=T 90.00000=T Traj:=T positionsangstrom=T Step:=T 0=T Bead:=T pbc="F F F"
C      -46.76510000     -35.27630000     -68.34490000
C      -45.61710000     -35.87580000     -68.86680000
C      -44.42630000     -35.14050000     -68.79220000
C      -44.43400000     -33.91160000     -68.20270000
C      -45.55180000     -33.33660000     -67.60170000
C      -46.75560000     -33.99310000     -67.78690000
H      -47.70010000     -35.81730000     -68.36010000
H      -43.47880000     -35.59640000     -69.19970000
H      -45.55500000     -32.38270000     -67.08510000
H      -47.61920000     -33.59610000     -67.36850000
C      -43.08630000     -33.29810000     -68.27470000
H      -42.31760000     -33.87630000     -68.86030000
H      -42.74220000     -33.17950000     -67.22390000
C      -45.66800000     -37.24220000     -69.66660000
H      -45.25070000     -38.16860000     -69.12490000
H      -46.70270000     -37.58440000     -69.83900000
S      -42.89040000     -31.56580000     -68.85390000
S      -44.64070000     -37.15080000     -71.23150000
C      -43.57220000     -31.44390000     -70.57350000
H      -43.24520000     -30.52330000     -71.01180000
H      -42.99590000     -32.28760000     -71.04370000
C      -45.51850000     -36.08180000     -72.39520000
H      -46.59390000     -36.32180000     -72.52250000
H      -45.01420000     -36.23420000     -73.35970000
C      -45.36230000     -34.57260000     -72.07910000
H      -45.93730000     -34.40560000     -71.14450000
H      -44.40370000     -34.37540000     -71.74230000
C      -45.04290000     -31.64740000     -70.66410000
H      -45.52530000     -31.01650000     -69.97230000
H      -45.32430000     -32.68110000     -70.45370000
C      -45.54300000     -31.34210000     -72.10770000
C      -45.65830000     -30.06920000     -72.55300000
C      -45.84910000     -32.29970000     -73.12840000
H      -45.50860000     -29.27970000     -71.78840000
C      -46.40070000     -31.71060000     -74.28690000
C      -45.85980000     -33.72560000     -73.22190000
C      -46.25150000     -34.24700000     -74.36770000
S      -46.36790000     -29.90230000     -74.16800000
S      -46.74300000     -32.90960000     -75.45010000
H      -46.42500000     -35.34530000     -74.61190000
