40
Properties=species:S:1:pos:R:3 #=T CELL(abcABC):=T 1.889726e+02=T 90.00000=T Traj:=T positionsangstrom=T Step:=T 0=T Bead:=T pbc="F F F"
C      -43.98870000     -32.08480000     -67.76440000
C      -43.86380000     -33.47650000     -68.13460000
C      -44.97670000     -34.24520000     -68.10740000
C      -46.24020000     -33.67840000     -67.87320000
C      -46.39960000     -32.33070000     -67.51850000
C      -45.23580000     -31.54620000     -67.43260000
H      -43.09090000     -31.46180000     -67.76170000
H      -44.89490000     -35.23770000     -68.28830000
H      -47.35420000     -31.79080000     -67.30620000
H      -45.38000000     -30.55270000     -67.12350000
C      -47.47170000     -34.47460000     -68.03180000
H      -48.40400000     -33.82030000     -68.06450000
H      -47.67640000     -35.25570000     -67.22540000
C      -42.48380000     -34.06570000     -68.39760000
H      -41.75900000     -33.23420000     -68.25790000
H      -42.21120000     -34.83660000     -67.64150000
S      -47.40000000     -35.45480000     -69.67320000
S      -42.23430000     -34.95350000     -70.01040000
C      -47.52840000     -34.15090000     -70.91070000
H      -48.54650000     -33.73840000     -71.05310000
H      -46.83660000     -33.35800000     -70.60940000
C      -42.49380000     -33.47410000     -71.15980000
H      -41.56440000     -33.38220000     -71.78470000
H      -42.56460000     -32.62650000     -70.50970000
C      -43.86200000     -33.77350000     -71.78850000
H      -43.81300000     -34.80690000     -72.20330000
H      -44.63200000     -33.73710000     -71.02390000
C      -47.03090000     -34.82560000     -72.31220000
H      -47.77490000     -35.61340000     -72.55700000
H      -46.06530000     -35.25900000     -72.07370000
C      -46.88530000     -33.77980000     -73.38200000
C      -47.89240000     -33.38470000     -74.20750000
C      -45.56900000     -33.12190000     -73.67140000
H      -48.91920000     -33.68060000     -74.14650000
C      -45.74470000     -32.25060000     -74.74120000
C      -44.29380000     -32.95230000     -72.97810000
C      -43.49000000     -32.06680000     -73.71510000
S      -47.34610000     -32.20930000     -75.44250000
S      -44.32800000     -31.25420000     -74.98520000
H      -42.44130000     -31.65340000     -73.48600000
