40
Properties=species:S:1:pos:R:3 #=T CELL(abcABC):=T 1.889726e+02=T 90.00000=T Traj:=T positionsangstrom=T Step:=T 0=T Bead:=T pbc="F F F"
C      -45.36380000     -35.32410000     -74.31130000
C      -45.33200000     -33.96080000     -74.56100000
C      -46.52150000     -33.20280000     -74.23070000
C      -47.58610000     -33.82420000     -73.55080000
C      -47.58830000     -35.21040000     -73.27670000
C      -46.48500000     -35.95230000     -73.78510000
H      -44.44790000     -35.95480000     -74.53890000
H      -46.52150000     -32.11470000     -74.42920000
H      -48.43630000     -35.85190000     -73.03740000
H      -46.44640000     -37.03060000     -73.60460000
C      -48.71650000     -32.92520000     -73.05780000
H      -49.63870000     -33.43960000     -73.39750000
H      -48.73420000     -31.98160000     -73.49710000
C      -44.16090000     -33.36820000     -75.27260000
H      -43.87440000     -34.15170000     -75.99300000
H      -44.48380000     -32.52800000     -75.95270000
S      -48.79930000     -32.54540000     -71.28900000
S      -42.85560000     -32.55370000     -74.11590000
C      -47.52370000     -31.18970000     -71.06270000
H      -47.53760000     -30.44200000     -71.88760000
H      -47.85350000     -30.74950000     -70.06700000
C      -43.07270000     -33.34260000     -72.42150000
H      -42.28920000     -33.99580000     -72.21940000
H      -44.01380000     -33.82170000     -72.40290000
C      -42.88060000     -32.18910000     -71.32070000
H      -41.98350000     -31.70910000     -71.54110000
H      -43.60290000     -31.35750000     -71.34920000
C      -46.05290000     -31.70690000     -70.86810000
H      -45.50040000     -30.76370000     -70.92760000
H      -45.73470000     -32.30300000     -71.73660000
C      -45.68890000     -32.48960000     -69.68670000
C      -46.60100000     -32.86800000     -68.74660000
C      -44.38220000     -32.95800000     -69.38050000
H      -47.68580000     -32.69250000     -68.59610000
C      -44.32980000     -33.80760000     -68.30450000
C      -43.05630000     -32.93120000     -69.94950000
C      -42.13960000     -33.84100000     -69.37270000
S      -45.91830000     -33.98070000     -67.51700000
S      -42.78780000     -34.55330000     -67.93760000
H      -41.07270000     -33.95330000     -69.64000000
