40
Properties=species:S:1:pos:R:3 #=T CELL(abcABC):=T 1.889726e+02=T 90.00000=T Traj:=T positionsangstrom=T Step:=T 0=T Bead:=T pbc="F F F"
C      -43.98190000     -32.17880000     -67.74630000
C      -43.80550000     -33.53520000     -68.11880000
C      -44.89940000     -34.30560000     -68.30410000
C      -46.20120000     -33.85720000     -68.12170000
C      -46.39000000     -32.48700000     -67.77850000
C      -45.25240000     -31.70970000     -67.51780000
H      -43.14560000     -31.49110000     -67.63750000
H      -44.69020000     -35.29010000     -68.59960000
H      -47.39450000     -32.05210000     -67.59460000
H      -45.42480000     -30.66200000     -67.27060000
C      -47.53500000     -34.64130000     -68.19930000
H      -48.30740000     -34.01110000     -67.92180000
H      -47.41050000     -35.31700000     -67.33600000
C      -42.42700000     -34.12700000     -68.25370000
H      -41.77190000     -33.65620000     -67.53180000
H      -42.48550000     -35.15100000     -68.00530000
S      -47.76860000     -35.54780000     -69.76080000
S      -41.74480000     -34.15850000     -69.94930000
C      -47.58390000     -34.29070000     -71.16030000
H      -48.50370000     -33.78630000     -71.41640000
H      -46.92570000     -33.50260000     -70.82770000
C      -42.69460000     -33.08680000     -71.06410000
H      -42.05290000     -32.66210000     -71.89970000
H      -42.90610000     -32.22550000     -70.53080000
C      -44.03720000     -33.64670000     -71.60580000
H      -44.09500000     -34.72590000     -71.79220000
H      -44.81210000     -33.45040000     -70.84880000
C      -46.83840000     -35.01860000     -72.32980000
H      -47.49800000     -35.88770000     -72.51920000
H      -45.93570000     -35.49360000     -72.05160000
C      -46.66250000     -34.13820000     -73.47830000
C      -47.66230000     -33.84190000     -74.37080000
C      -45.57190000     -33.20300000     -73.60590000
H      -48.49880000     -34.49630000     -74.58950000
C      -45.77880000     -32.27490000     -74.60120000
C      -44.37820000     -32.87040000     -72.87630000
C      -43.69140000     -31.78740000     -73.36330000
S      -47.32430000     -32.47670000     -75.41220000
S      -44.46720000     -31.16180000     -74.84670000
H      -42.87850000     -31.24540000     -72.87140000
