40
Properties=species:S:1:pos:R:3 #=T CELL(abcABC):=T 1.889726e+02=T 90.00000=T Traj:=T positionsangstrom=T Step:=T 0=T Bead:=T pbc="F F F"
C      -44.14870000     -32.21320000     -67.94410000
C      -43.93980000     -33.55530000     -68.00720000
C      -45.05790000     -34.42330000     -68.02720000
C      -46.33600000     -33.87930000     -67.95660000
C      -46.56790000     -32.53870000     -67.94230000
C      -45.45530000     -31.68130000     -67.96410000
H      -43.42440000     -31.39840000     -67.91380000
H      -44.98940000     -35.52420000     -68.23840000
H      -47.52040000     -32.15200000     -68.09910000
H      -45.62180000     -30.60530000     -67.91290000
C      -47.46040000     -34.89750000     -68.05670000
H      -48.40930000     -34.38100000     -68.02110000
H      -47.48120000     -35.61220000     -67.26720000
C      -42.48910000     -34.10930000     -68.12870000
H      -41.72900000     -33.42830000     -67.76670000
H      -42.43020000     -35.11930000     -67.67910000
S      -47.43720000     -35.81910000     -69.72070000
S      -41.93380000     -34.29190000     -69.92980000
C      -47.31530000     -34.35300000     -70.81090000
H      -48.06490000     -33.56530000     -70.69220000
H      -46.38090000     -33.91270000     -70.45780000
C      -42.70890000     -32.88710000     -70.91220000
H      -42.01910000     -32.49050000     -71.61900000
H      -42.97490000     -32.04040000     -70.18070000
C      -43.94950000     -33.35480000     -71.62520000
H      -43.64630000     -34.25040000     -72.19530000
H      -44.66980000     -33.79330000     -70.95540000
C      -47.22090000     -34.82800000     -72.26550000
H      -48.23120000     -35.17420000     -72.40850000
H      -46.56960000     -35.71670000     -72.30780000
C      -46.72220000     -33.83810000     -73.35180000
C      -47.47970000     -33.92560000     -74.52550000
C      -45.57760000     -32.99650000     -73.57640000
H      -48.44240000     -34.33930000     -74.57430000
C      -45.60760000     -32.34820000     -74.78970000
C      -44.53230000     -32.49440000     -72.72860000
C      -43.91440000     -31.39660000     -73.21500000
S      -46.96490000     -32.79990000     -75.80880000
S      -44.53410000     -30.93620000     -74.76080000
H      -42.95890000     -30.87850000     -72.92830000
