40
Properties=species:S:1:pos:R:3 #=T CELL(abcABC):=T 1.889726e+02=T 90.00000=T Traj:=T positionsangstrom=T Step:=T 0=T Bead:=T pbc="F F F"
C      -44.28960000     -32.12530000     -68.01220000
C      -43.88870000     -33.46770000     -67.99790000
C      -44.94390000     -34.46460000     -68.03660000
C      -46.26630000     -34.01170000     -67.95370000
C      -46.62030000     -32.66950000     -67.99450000
C      -45.62280000     -31.69180000     -67.99170000
H      -43.48270000     -31.36570000     -68.02250000
H      -44.90270000     -35.53650000     -68.10710000
H      -47.64800000     -32.29720000     -68.00680000
H      -45.79440000     -30.65310000     -68.05600000
C      -47.38610000     -34.95410000     -68.12440000
H      -48.33330000     -34.48390000     -67.80140000
H      -47.20250000     -35.88290000     -67.51390000
C      -42.49570000     -33.94080000     -68.06390000
H      -41.73940000     -33.26220000     -67.59200000
H      -42.47610000     -34.89430000     -67.51600000
S      -47.56260000     -35.70210000     -69.85130000
S      -42.08350000     -34.37610000     -69.85610000
C      -47.35290000     -34.46620000     -71.17840000
H      -48.33310000     -34.07660000     -71.53480000
H      -46.80910000     -33.56940000     -70.80280000
C      -42.73560000     -33.01610000     -70.93670000
H      -42.04290000     -32.98560000     -71.80660000
H      -42.52610000     -32.12430000     -70.43400000
C      -44.21220000     -33.06050000     -71.29790000
H      -44.55760000     -34.11230000     -71.34040000
H      -44.75650000     -32.49420000     -70.45660000
C      -46.64480000     -35.03070000     -72.33490000
H      -47.23610000     -35.81810000     -72.79180000
H      -45.64040000     -35.45190000     -72.23310000
C      -46.59010000     -34.01490000     -73.43570000
C      -47.35510000     -34.00820000     -74.61650000
C      -45.63190000     -32.91680000     -73.47750000
H      -48.09630000     -34.83670000     -74.74680000
C      -45.75800000     -32.12700000     -74.63190000
C      -44.50690000     -32.45460000     -72.63020000
C      -43.77800000     -31.49050000     -73.24340000
S      -46.91690000     -32.75140000     -75.71760000
S      -44.48840000     -30.93370000     -74.73640000
H      -43.03010000     -30.92570000     -72.77430000
