40
Properties=species:S:1:pos:R:3 #=T CELL(abcABC):=T 1.889726e+02=T 90.00000=T Traj:=T positionsangstrom=T Step:=T 0=T Bead:=T pbc="F F F"
C      -44.39540000     -32.02030000     -67.87410000
C      -43.93230000     -33.36670000     -68.05770000
C      -44.91770000     -34.35400000     -68.07100000
C      -46.26950000     -33.97210000     -68.20020000
C      -46.66360000     -32.64910000     -67.96830000
C      -45.74060000     -31.64610000     -67.76210000
H      -43.59870000     -31.33360000     -67.74060000
H      -44.65200000     -35.37620000     -68.15510000
H      -47.77770000     -32.47030000     -68.01260000
H      -46.10380000     -30.65450000     -67.54920000
C      -47.41280000     -35.00500000     -68.28540000
H      -48.30990000     -34.47020000     -67.99160000
H      -47.36270000     -35.83020000     -67.57500000
C      -42.51470000     -33.62600000     -68.25510000
H      -41.93500000     -32.67050000     -68.25250000
H      -42.05850000     -34.17010000     -67.44880000
S      -47.62500000     -35.91150000     -69.89190000
S      -42.14980000     -34.50360000     -69.79080000
C      -47.59380000     -34.65700000     -71.28380000
H      -48.59470000     -34.63990000     -71.71480000
H      -47.25710000     -33.72130000     -70.85710000
C      -42.53800000     -33.23010000     -71.12600000
H      -42.32870000     -33.82860000     -72.03210000
H      -41.87060000     -32.31210000     -71.09280000
C      -44.00830000     -32.81680000     -71.18890000
H      -44.60010000     -33.63300000     -70.86710000
H      -44.18480000     -32.03170000     -70.51660000
C      -46.57740000     -35.05060000     -72.36260000
H      -46.82890000     -36.06610000     -72.68150000
H      -45.64550000     -35.24660000     -71.75260000
C      -46.40510000     -34.06270000     -73.46760000
C      -47.24220000     -34.06000000     -74.60730000
C      -45.54440000     -32.93710000     -73.38430000
H      -47.90180000     -34.94760000     -74.94720000
C      -45.69680000     -32.15410000     -74.53120000
C      -44.47160000     -32.38630000     -72.59870000
C      -43.88420000     -31.24340000     -73.11390000
S      -46.90380000     -32.68950000     -75.62710000
S      -44.48700000     -30.93500000     -74.77320000
H      -43.19280000     -30.60370000     -72.69480000
