40
Properties=species:S:1:pos:R:3 #=T CELL(abcABC):=T 1.889726e+02=T 90.00000=T Traj:=T positionsangstrom=T Step:=T 0=T Bead:=T pbc="F F F"
C      -44.56320000     -31.93110000     -67.72010000
C      -44.12710000     -33.16190000     -68.21500000
C      -45.08780000     -34.12100000     -68.48960000
C      -46.42890000     -33.84030000     -68.54190000
C      -46.84930000     -32.51050000     -68.15930000
C      -45.92410000     -31.62600000     -67.69440000
H      -43.73480000     -31.23330000     -67.59370000
H      -44.73190000     -35.14210000     -68.78050000
H      -47.94700000     -32.30160000     -68.14410000
H      -46.22550000     -30.61300000     -67.34550000
C      -47.43190000     -34.99890000     -68.40790000
H      -48.46170000     -34.58010000     -68.41040000
H      -47.20560000     -35.59600000     -67.52300000
C      -42.64490000     -33.43380000     -68.35380000
H      -42.14980000     -32.46210000     -68.43850000
H      -42.24590000     -33.93760000     -67.44710000
S      -47.44320000     -36.21090000     -69.83800000
S      -42.26810000     -34.58220000     -69.81020000
C      -47.49470000     -34.85180000     -71.17610000
H      -48.50870000     -34.92780000     -71.51840000
H      -47.52540000     -33.88220000     -70.63840000
C      -42.65710000     -33.57230000     -71.24320000
H      -42.53030000     -34.15740000     -72.06490000
H      -41.95990000     -32.70450000     -71.31440000
C      -44.05460000     -32.96670000     -71.26720000
H      -44.79470000     -33.67820000     -70.87470000
H      -44.13680000     -32.11870000     -70.57260000
C      -46.40730000     -35.05710000     -72.24680000
H      -46.60780000     -35.95240000     -72.86300000
H      -45.44710000     -35.13860000     -71.77420000
C      -46.36300000     -33.94240000     -73.26480000
C      -47.20600000     -34.01310000     -74.35020000
C      -45.34350000     -32.87160000     -73.43450000
H      -48.09390000     -34.67320000     -74.44340000
C      -45.51630000     -32.13640000     -74.63350000
C      -44.32730000     -32.34490000     -72.58180000
C      -43.75960000     -31.19230000     -73.04740000
S      -46.84410000     -32.77580000     -75.55900000
S      -44.43860000     -30.72460000     -74.59940000
H      -42.85020000     -30.75440000     -72.71960000
