40
Properties=species:S:1:pos:R:3 #=T CELL(abcABC):=T 1.889726e+02=T 90.00000=T Traj:=T positionsangstrom=T Step:=T 0=T Bead:=T pbc="F F F"
C      -48.36230000     -33.99240000     -70.56080000
C      -48.18000000     -34.43300000     -71.89210000
C      -47.39860000     -35.53310000     -72.12250000
C      -46.83120000     -36.25040000     -71.05320000
C      -46.93500000     -35.76100000     -69.72670000
C      -47.57970000     -34.54060000     -69.55550000
H      -48.94610000     -33.09530000     -70.28250000
H      -47.22620000     -35.82950000     -73.18090000
H      -46.41150000     -36.19250000     -68.93060000
H      -47.69020000     -34.16730000     -68.48620000
C      -45.85760000     -37.35990000     -71.33940000
H      -46.31530000     -38.09820000     -71.98730000
H      -45.63290000     -37.90890000     -70.37530000
C      -48.86950000     -33.63600000     -73.04790000
H      -49.67560000     -34.26330000     -73.37110000
H      -49.47650000     -32.78260000     -72.62410000
S      -44.32870000     -36.77410000     -72.18860000
S      -47.70540000     -32.90510000     -74.31870000
C      -43.54790000     -35.44430000     -71.12040000
H      -44.35300000     -35.17630000     -70.44230000
H      -42.60420000     -35.82740000     -70.67780000
C      -46.88560000     -31.60330000     -73.37760000
H      -47.54700000     -31.18780000     -72.64570000
H      -46.64660000     -30.81180000     -74.11690000
C      -45.60260000     -32.14720000     -72.73330000
H      -45.88770000     -33.12070000     -72.32750000
H      -44.76820000     -32.31080000     -73.44520000
C      -43.01240000     -34.27690000     -72.03100000
H      -43.64100000     -34.03970000     -72.86780000
H      -42.09680000     -34.57650000     -72.39870000
C      -42.88780000     -33.05610000     -71.09630000
C      -41.97830000     -33.16250000     -70.04080000
C      -43.73180000     -31.90370000     -71.01900000
H      -41.10630000     -33.85220000     -69.74410000
C      -43.38980000     -31.06610000     -69.96560000
C      -44.94530000     -31.44530000     -71.61340000
C      -45.44070000     -30.30060000     -71.04660000
S      -42.12900000     -31.70380000     -68.97370000
S      -44.51010000     -29.86950000     -69.54910000
H      -46.41120000     -29.89070000     -71.21830000
