40
Properties=species:S:1:pos:R:3 #=T CELL(abcABC):=T 1.889726e+02=T 90.00000=T Traj:=T positionsangstrom=T Step:=T 0=T Bead:=T pbc="F F F"
C      -48.47650000     -34.03040000     -70.62160000
C      -48.24810000     -34.42810000     -71.96260000
C      -47.23440000     -35.37450000     -72.31900000
C      -46.53960000     -35.95750000     -71.25420000
C      -46.74200000     -35.50370000     -69.91170000
C      -47.80500000     -34.68050000     -69.55260000
H      -49.15970000     -33.22130000     -70.46310000
H      -47.04970000     -35.54550000     -73.35870000
H      -46.22280000     -36.10960000     -69.14110000
H      -48.03500000     -34.54140000     -68.52550000
C      -45.69690000     -37.23040000     -71.48360000
H      -46.36670000     -38.00450000     -71.93670000
H      -45.43490000     -37.62540000     -70.53230000
C      -49.02740000     -33.71340000     -73.03410000
H      -49.54130000     -34.42470000     -73.70270000
H      -49.65900000     -32.99270000     -72.60060000
S      -44.28940000     -36.91270000     -72.58490000
S      -47.85110000     -32.79800000     -74.20280000
C      -43.28380000     -35.79830000     -71.36910000
H      -43.84930000     -35.62710000     -70.46460000
H      -42.30860000     -36.28880000     -71.20110000
C      -47.06870000     -31.62190000     -72.96980000
H      -47.86240000     -31.52790000     -72.14140000
H      -46.83210000     -30.61930000     -73.42140000
C      -45.77450000     -32.26300000     -72.43760000
H      -46.12280000     -33.29420000     -72.14330000
H      -45.02760000     -32.36910000     -73.22200000
C      -43.04730000     -34.37850000     -71.95460000
H      -43.88660000     -34.09840000     -72.54640000
H      -42.18810000     -34.32270000     -72.60340000
C      -42.91020000     -33.19170000     -70.92890000
C      -41.75680000     -33.00720000     -70.24340000
C      -43.91870000     -32.06670000     -70.70480000
H      -40.84510000     -33.57730000     -70.19250000
C      -43.50510000     -31.23010000     -69.69540000
C      -45.15160000     -31.54400000     -71.22580000
C      -45.61170000     -30.39650000     -70.68580000
S      -41.86600000     -31.52580000     -69.21910000
S      -44.52320000     -29.80350000     -69.38570000
H      -46.29360000     -29.69930000     -71.16500000
