40
Properties=species:S:1:pos:R:3 #=T CELL(abcABC):=T 1.889726e+02=T 90.00000=T Traj:=T positionsangstrom=T Step:=T 0=T Bead:=T pbc="F F F"
C      -48.53550000     -34.08050000     -70.70670000
C      -48.39070000     -34.53520000     -72.01770000
C      -47.43830000     -35.54620000     -72.29780000
C      -46.65680000     -36.15440000     -71.27600000
C      -46.89810000     -35.76100000     -69.99530000
C      -47.78180000     -34.74070000     -69.71460000
H      -49.31010000     -33.29520000     -70.55210000
H      -47.42370000     -35.97970000     -73.20690000
H      -46.28480000     -36.11300000     -69.14370000
H      -47.93090000     -34.40630000     -68.68100000
C      -45.67480000     -37.23250000     -71.58850000
H      -46.07780000     -38.02460000     -72.29960000
H      -45.36040000     -37.75350000     -70.65930000
C      -49.05480000     -33.89850000     -73.16670000
H      -49.34570000     -34.70860000     -73.88240000
H      -50.00680000     -33.45590000     -72.77780000
S      -44.14500000     -36.71170000     -72.48900000
S      -48.10150000     -32.48600000     -74.01370000
C      -43.37500000     -35.52730000     -71.39510000
H      -43.89820000     -35.38140000     -70.42430000
H      -42.37590000     -36.01120000     -71.16650000
C      -47.12620000     -31.68780000     -72.65870000
H      -47.69520000     -31.57140000     -71.83980000
H      -47.03440000     -30.67300000     -72.99300000
C      -45.74260000     -32.36080000     -72.40680000
H      -45.79220000     -33.38240000     -72.18350000
H      -45.11910000     -32.26000000     -73.30400000
C      -43.21390000     -34.15150000     -72.00700000
H      -44.19650000     -33.95290000     -72.45550000
H      -42.55170000     -34.29330000     -72.91840000
C      -42.75140000     -33.09330000     -71.08700000
C      -41.73900000     -33.06770000     -70.20410000
C      -43.75200000     -32.02300000     -70.79870000
H      -40.95760000     -33.74410000     -70.09610000
C      -43.29260000     -31.16770000     -69.83700000
C      -45.06030000     -31.64180000     -71.25860000
C      -45.57170000     -30.61980000     -70.56200000
S      -41.75410000     -31.60360000     -69.19650000
S      -44.40270000     -29.87840000     -69.45350000
H      -46.27490000     -29.93630000     -70.97860000
