40
Properties=species:S:1:pos:R:3 #=T CELL(abcABC):=T 1.889726e+02=T 90.00000=T Traj:=T positionsangstrom=T Step:=T 0=T Bead:=T pbc="F F F"
C      -46.25340000     -29.84280000     -71.61760000
C      -44.93110000     -30.12850000     -71.25060000
C      -44.53230000     -30.77060000     -70.04950000
C      -45.56320000     -31.07030000     -69.12760000
C      -46.84430000     -30.63580000     -69.38380000
C      -47.25550000     -30.08610000     -70.61290000
H      -46.46010000     -29.22870000     -72.51940000
H      -43.54000000     -31.20640000     -69.89110000
H      -47.60100000     -30.81470000     -68.62000000
H      -48.20360000     -29.51490000     -70.93070000
C      -45.11610000     -31.73620000     -67.79380000
H      -45.16770000     -31.05190000     -66.93570000
H      -44.09440000     -32.13840000     -67.87980000
C      -43.88710000     -29.73200000     -72.31050000
H      -44.31870000     -29.71340000     -73.34940000
H      -43.39180000     -28.73260000     -72.10090000
S      -46.14550000     -33.17040000     -67.45740000
S      -42.32250000     -30.87620000     -72.43780000
C      -46.63470000     -33.75470000     -69.12180000
H      -47.57830000     -34.23010000     -68.99820000
H      -46.75180000     -33.04170000     -69.88170000
C      -42.98610000     -32.43890000     -73.16760000
H      -42.04250000     -33.00160000     -73.34720000
H      -43.48920000     -32.16000000     -74.16650000
C      -43.96110000     -33.20650000     -72.22730000
H      -43.37910000     -33.64530000     -71.37620000
H      -44.72720000     -32.63140000     -71.78500000
C      -45.57320000     -34.83380000     -69.52070000
H      -45.56270000     -35.61910000     -68.71690000
H      -44.56980000     -34.43050000     -69.46510000
C      -45.93870000     -35.58500000     -70.80880000
C      -46.71970000     -36.70940000     -70.74450000
C      -45.64710000     -35.26320000     -72.16790000
H      -47.20410000     -37.04810000     -69.85180000
C      -46.04600000     -36.26950000     -73.07840000
C      -44.65980000     -34.36490000     -72.79560000
C      -44.30740000     -34.79540000     -74.06330000
S      -47.06290000     -37.50440000     -72.23050000
S      -45.32050000     -36.16560000     -74.67220000
H      -43.62450000     -34.31110000     -74.77810000
