40
Properties=species:S:1:pos:R:3 #=T CELL(abcABC):=T 1.889726e+02=T 90.00000=T Traj:=T positionsangstrom=T Step:=T 0=T Bead:=T pbc="F F F"
C      -46.81250000     -35.16090000     -68.43090000
C      -45.73980000     -35.78440000     -69.01950000
C      -44.48760000     -35.18040000     -68.92030000
C      -44.31100000     -34.03820000     -68.09180000
C      -45.43060000     -33.36580000     -67.54110000
C      -46.68190000     -33.93100000     -67.71110000
H      -47.80560000     -35.59940000     -68.50960000
H      -43.65190000     -35.69370000     -69.38480000
H      -45.25710000     -32.48470000     -66.94890000
H      -47.49990000     -33.54050000     -67.11110000
C      -42.98780000     -33.34240000     -67.90180000
H      -42.11080000     -33.99240000     -68.29860000
H      -42.74420000     -33.09250000     -66.84930000
C      -45.77650000     -37.13940000     -69.64800000
H      -45.39830000     -37.86250000     -68.92600000
H      -46.81710000     -37.53410000     -69.78980000
S      -42.96600000     -31.77930000     -68.84340000
S      -44.97670000     -37.27170000     -71.32480000
C      -43.75750000     -32.16400000     -70.50660000
H      -43.28230000     -31.57610000     -71.24610000
H      -43.77530000     -33.25360000     -70.74380000
C      -45.83100000     -36.07960000     -72.44720000
H      -46.90500000     -36.24810000     -72.35570000
H      -45.62870000     -36.47530000     -73.47070000
C      -45.49990000     -34.60400000     -72.19970000
H      -45.89640000     -34.34820000     -71.25410000
H      -44.42540000     -34.55130000     -71.97090000
C      -45.27680000     -31.74800000     -70.52110000
H      -45.50440000     -30.95510000     -69.85740000
H      -45.96980000     -32.49130000     -70.26880000
C      -45.55840000     -31.30930000     -71.98750000
C      -45.77640000     -30.01400000     -72.29210000
C      -45.65380000     -32.23900000     -73.11460000
H      -45.65880000     -29.46350000     -71.42440000
C      -45.96560000     -31.55530000     -74.27880000
C      -45.82900000     -33.68640000     -73.33570000
C      -46.11930000     -34.01540000     -74.61300000
S      -46.25980000     -29.80360000     -74.07460000
S      -46.32230000     -32.57540000     -75.63210000
H      -46.15500000     -34.94070000     -75.05660000
