40
Properties=species:S:1:pos:R:3 #=T CELL(abcABC):=T 1.889726e+02=T 90.00000=T Traj:=T positionsangstrom=T Step:=T 0=T Bead:=T pbc="F F F"
C      -45.97920000     -29.82410000     -71.61750000
C      -44.71720000     -30.27590000     -71.32730000
C      -44.44510000     -30.87680000     -70.07630000
C      -45.46690000     -31.09350000     -69.18920000
C      -46.78000000     -30.60650000     -69.51760000
C      -47.00680000     -29.95660000     -70.73380000
H      -46.07140000     -29.27920000     -72.56890000
H      -43.44960000     -31.01900000     -69.69420000
H      -47.55680000     -30.62490000     -68.80620000
H      -48.05610000     -29.57240000     -70.76370000
C      -45.21460000     -31.73240000     -67.85770000
H      -45.05170000     -31.11350000     -66.97730000
H      -44.33070000     -32.33440000     -68.01000000
C      -43.57550000     -29.94760000     -72.27170000
H      -44.06090000     -29.83510000     -73.30580000
H      -43.02540000     -29.03600000     -71.93450000
S      -46.56310000     -32.89050000     -67.36080000
S      -42.19870000     -31.13730000     -72.30800000
C      -46.98890000     -33.89620000     -68.88430000
H      -47.54930000     -34.78700000     -68.67770000
H      -47.56480000     -33.30910000     -69.50130000
C      -42.82220000     -32.77960000     -73.10390000
H      -41.85180000     -33.29270000     -73.50970000
H      -43.61070000     -32.52500000     -73.88630000
C      -43.46870000     -33.58590000     -72.03620000
H      -42.80880000     -34.06740000     -71.32960000
H      -44.15450000     -33.06400000     -71.38270000
C      -45.77920000     -34.28530000     -69.78630000
H      -44.99150000     -34.76320000     -69.14370000
H      -45.22410000     -33.42040000     -70.24550000
C      -46.11150000     -35.26950000     -70.92110000
C      -47.30600000     -36.05420000     -70.91370000
C      -45.33350000     -35.42390000     -72.13020000
H      -48.18010000     -36.00850000     -70.28280000
C      -45.95710000     -36.36450000     -73.00830000
C      -44.23240000     -34.72570000     -72.76000000
C      -44.19080000     -35.05110000     -74.10320000
S      -47.36480000     -37.16120000     -72.34760000
S      -45.30180000     -36.32520000     -74.62470000
H      -43.45730000     -34.64440000     -74.84000000
