40
Properties=species:S:1:pos:R:3 #=T CELL(abcABC):=T 1.889726e+02=T 90.00000=T Traj:=T positionsangstrom=T Step:=T 0=T Bead:=T pbc="F F F"
C      -48.79040000     -34.60960000     -70.21790000
C      -48.59550000     -34.53350000     -71.64820000
C      -47.69290000     -35.43610000     -72.26180000
C      -46.99110000     -36.37400000     -71.43300000
C      -47.24980000     -36.52220000     -70.06140000
C      -48.19760000     -35.57890000     -69.48870000
H      -49.44740000     -33.87400000     -69.85390000
H      -47.52000000     -35.35720000     -73.37380000
H      -46.71360000     -37.31530000     -69.51560000
H      -48.52900000     -35.70860000     -68.47220000
C      -46.00690000     -37.37620000     -72.01150000
H      -46.42350000     -37.97590000     -72.89950000
H      -45.65470000     -38.12730000     -71.27850000
C      -49.41490000     -33.57580000     -72.46030000
H      -49.93840000     -34.21550000     -73.20160000
H      -50.14040000     -33.01760000     -71.83270000
S      -44.52470000     -36.58900000     -72.60350000
S      -48.35650000     -32.45220000     -73.47380000
C      -44.03570000     -35.20230000     -71.50610000
H      -44.92650000     -34.60640000     -71.24910000
H      -43.63040000     -35.54500000     -70.57950000
C      -47.20830000     -31.49040000     -72.22030000
H      -47.75410000     -31.54160000     -71.30010000
H      -47.26610000     -30.41820000     -72.54990000
C      -45.85130000     -32.13570000     -72.10380000
H      -45.94770000     -33.18870000     -71.60910000
H      -45.40160000     -32.33480000     -73.09570000
C      -43.05470000     -34.27310000     -72.16710000
H      -43.43180000     -33.82110000     -73.02260000
H      -42.03780000     -34.70900000     -72.34010000
C      -42.73580000     -33.13940000     -71.23310000
C      -41.52360000     -33.10110000     -70.60470000
C      -43.53710000     -32.00130000     -70.92320000
H      -40.70170000     -33.82510000     -70.71940000
C      -42.80520000     -31.13570000     -70.02700000
C      -44.77170000     -31.40890000     -71.29080000
C      -44.85210000     -30.09580000     -70.91650000
S      -41.28470000     -31.75710000     -69.53360000
S      -43.65700000     -29.62020000     -69.74470000
H      -45.63740000     -29.32700000     -71.01560000
