40
Properties=species:S:1:pos:R:3 #=T CELL(abcABC):=T 1.889726e+02=T 90.00000=T Traj:=T positionsangstrom=T Step:=T 0=T Bead:=T pbc="F F F"
C      -48.95290000     -34.61280000     -70.20660000
C      -48.63780000     -34.52180000     -71.55760000
C      -47.62890000     -35.38580000     -72.14110000
C      -46.98030000     -36.37260000     -71.38880000
C      -47.26210000     -36.47670000     -69.98600000
C      -48.26440000     -35.64950000     -69.48450000
H      -49.73750000     -33.96700000     -69.75000000
H      -47.54190000     -35.25700000     -73.22720000
H      -46.65640000     -37.24070000     -69.39470000
H      -48.55310000     -35.76690000     -68.45510000
C      -46.04220000     -37.40120000     -71.99530000
H      -46.50840000     -38.00550000     -72.73270000
H      -45.84270000     -38.14060000     -71.20090000
C      -49.32630000     -33.48130000     -72.41690000
H      -49.84110000     -33.99700000     -73.18320000
H      -50.11450000     -32.93170000     -71.85620000
S      -44.46740000     -36.69050000     -72.78150000
S      -48.31400000     -32.19270000     -73.28400000
C      -44.28200000     -35.21300000     -71.68250000
H      -45.25640000     -34.77860000     -71.54790000
H      -44.00780000     -35.56200000     -70.62090000
C      -47.14470000     -31.60800000     -72.03980000
H      -47.44850000     -31.92280000     -71.06400000
H      -47.24170000     -30.50650000     -72.03310000
C      -45.70780000     -31.95700000     -72.34110000
H      -45.56200000     -33.01030000     -72.61800000
H      -45.41620000     -31.35850000     -73.17740000
C      -43.30260000     -34.23040000     -72.21070000
H      -43.55230000     -33.76880000     -73.20590000
H      -42.40590000     -34.86280000     -72.54040000
C      -42.78720000     -33.23910000     -71.24860000
C      -41.56210000     -33.30140000     -70.64200000
C      -43.50040000     -31.98120000     -70.94700000
H      -40.74260000     -34.05250000     -70.67760000
C      -42.67920000     -31.08640000     -70.19190000
C      -44.78210000     -31.42000000     -71.20030000
C      -44.98600000     -30.17090000     -70.64250000
S      -41.26740000     -31.85720000     -69.62670000
S      -43.54420000     -29.63910000     -69.75480000
H      -45.85960000     -29.60360000     -70.71800000
