40
Properties=species:S:1:pos:R:3 #=T CELL(abcABC):=T 1.889726e+02=T 90.00000=T Traj:=T positionsangstrom=T Step:=T 0=T Bead:=T pbc="F F F"
C      -48.55220000     -33.62640000     -69.86170000
C      -48.72010000     -33.76610000     -71.23530000
C      -47.99460000     -34.79280000     -71.92400000
C      -47.33370000     -35.79670000     -71.26510000
C      -47.22050000     -35.68090000     -69.80390000
C      -47.82800000     -34.63910000     -69.13890000
H      -49.10110000     -32.77280000     -69.53320000
H      -48.13780000     -34.85110000     -73.02680000
H      -46.72600000     -36.49190000     -69.27400000
H      -47.93540000     -34.48480000     -68.06240000
C      -46.67330000     -36.92920000     -71.98320000
H      -47.33930000     -37.40820000     -72.68890000
H      -46.44020000     -37.76670000     -71.34530000
C      -49.47580000     -32.69180000     -71.97370000
H      -50.34230000     -33.03950000     -72.56770000
H      -49.93960000     -31.97510000     -71.31580000
S      -45.28580000     -36.43320000     -73.07520000
S      -48.29820000     -31.90000000     -73.18190000
C      -44.18900000     -35.48910000     -71.96450000
H      -44.69810000     -34.86500000     -71.23860000
H      -43.63890000     -36.19960000     -71.39910000
C      -46.88710000     -31.49770000     -72.07840000
H      -47.21990000     -31.33870000     -71.04810000
H      -46.54030000     -30.57730000     -72.52860000
C      -45.71900000     -32.48920000     -72.03990000
H      -46.05670000     -33.45530000     -71.72280000
H      -45.17610000     -32.70900000     -73.02410000
C      -43.12240000     -34.57600000     -72.73690000
H      -43.54820000     -34.09890000     -73.56560000
H      -42.41030000     -35.25090000     -73.18090000
C      -42.59840000     -33.47470000     -71.77680000
C      -41.26390000     -33.58380000     -71.30880000
C      -43.32970000     -32.45030000     -71.11860000
H      -40.46670000     -34.29880000     -71.67190000
C      -42.51010000     -31.72800000     -70.20600000
C      -44.70820000     -31.97220000     -71.08660000
C      -44.94200000     -31.05910000     -70.09290000
S      -40.87760000     -32.27800000     -70.22850000
S      -43.44170000     -30.55310000     -69.25940000
H      -45.76010000     -30.41420000     -70.00560000
