40
Properties=species:S:1:pos:R:3 #=T CELL(abcABC):=T 1.889726e+02=T 90.00000=T Traj:=T positionsangstrom=T Step:=T 0=T Bead:=T pbc="F F F"
C      -43.83560000     -36.85780000     -71.39750000
C      -44.99860000     -36.63710000     -70.61320000
C      -46.24030000     -36.42410000     -71.22920000
C      -46.41080000     -36.31750000     -72.61460000
C      -45.25420000     -36.44440000     -73.37470000
C      -43.98850000     -36.81640000     -72.79790000
H      -42.88410000     -37.01040000     -70.88860000
H      -47.10580000     -36.34830000     -70.59910000
H      -45.35720000     -36.31150000     -74.40640000
H      -43.24220000     -37.09270000     -73.50690000
C      -47.83940000     -36.02720000     -73.15150000
H      -48.50560000     -36.89640000     -73.08540000
H      -47.75630000     -35.89940000     -74.21450000
C      -45.01020000     -36.84440000     -69.15510000
H      -46.04040000     -37.05490000     -68.83030000
H      -44.34640000     -37.65300000     -68.86670000
S      -48.76600000     -34.59630000     -72.38400000
S      -44.25460000     -35.42690000     -68.12630000
C      -47.74470000     -33.10800000     -73.11870000
H      -47.59320000     -33.14140000     -74.17870000
H      -48.30190000     -32.20960000     -72.86470000
C      -44.72960000     -33.84950000     -68.90100000
H      -44.67490000     -33.15350000     -68.05040000
H      -45.74510000     -33.85640000     -69.28830000
C      -43.87050000     -33.29160000     -70.00150000
H      -42.76970000     -33.50610000     -69.92970000
H      -44.16360000     -33.71020000     -70.93280000
C      -46.30030000     -33.12480000     -72.46520000
H      -45.64430000     -33.69700000     -73.10500000
H      -46.43530000     -33.61650000     -71.51890000
C      -45.73670000     -31.73710000     -72.27670000
C      -46.00500000     -30.69450000     -73.18260000
C      -44.74690000     -31.26500000     -71.33100000
H      -46.69630000     -30.74250000     -74.05820000
C      -44.43290000     -29.92500000     -71.50670000
C      -44.01060000     -31.85830000     -70.18540000
C      -43.08080000     -30.94450000     -69.73940000
S      -45.31790000     -29.18030000     -72.77350000
S      -43.24210000     -29.40000000     -70.42110000
H      -42.48220000     -30.97620000     -68.87480000
