40
Properties=species:S:1:pos:R:3 #=T CELL(abcABC):=T 1.889726e+02=T 90.00000=T Traj:=T positionsangstrom=T Step:=T 0=T Bead:=T pbc="F F F"
C      -49.17750000     -34.85060000     -70.10960000
C      -48.98840000     -33.95300000     -71.13080000
C      -48.45640000     -32.66800000     -70.93700000
C      -48.17950000     -32.17800000     -69.63180000
C      -48.41090000     -33.07080000     -68.55340000
C      -48.78330000     -34.40200000     -68.85730000
H      -49.54800000     -35.78520000     -70.21690000
H      -48.29800000     -32.07980000     -71.86380000
H      -48.26550000     -32.77440000     -67.48050000
H      -48.78280000     -35.05210000     -67.98330000
C      -47.51510000     -30.76060000     -69.37560000
H      -48.06100000     -30.14010000     -68.62770000
H      -47.38980000     -30.22500000     -70.28020000
C      -49.32920000     -34.37040000     -72.58170000
H      -49.75330000     -35.36980000     -72.60110000
H      -50.15740000     -33.69180000     -72.91430000
S      -45.82100000     -30.97120000     -68.45860000
S      -47.91070000     -34.19590000     -73.78810000
C      -45.04830000     -32.31590000     -69.52840000
H      -44.20640000     -32.85800000     -69.04730000
H      -45.90990000     -33.04730000     -69.66880000
C      -46.43500000     -34.91510000     -72.84390000
H      -46.32220000     -35.99190000     -73.06180000
H      -46.57650000     -34.67620000     -71.79380000
C      -45.22860000     -34.17270000     -73.42720000
H      -45.30560000     -34.18080000     -74.56830000
H      -45.35400000     -33.13580000     -73.14710000
C      -44.63510000     -31.75120000     -70.99080000
H      -44.64380000     -30.70650000     -70.81690000
H      -45.38050000     -31.92540000     -71.67540000
C      -43.29350000     -32.32640000     -71.42610000
C      -42.15650000     -31.66200000     -71.10900000
C      -43.08360000     -33.59050000     -72.13430000
H      -42.09460000     -30.64450000     -70.64030000
C      -41.74330000     -33.94680000     -72.09180000
C      -43.88220000     -34.56390000     -72.90000000
C      -43.17070000     -35.70090000     -73.13230000
S      -40.70510000     -32.63390000     -71.51670000
S      -41.54540000     -35.66630000     -72.51570000
H      -43.52970000     -36.55910000     -73.75550000
