40
Properties=species:S:1:pos:R:3 #=T CELL(abcABC):=T 1.889726e+02=T 90.00000=T Traj:=T positionsangstrom=T Step:=T 0=T Bead:=T pbc="F F F"
C      -43.89000000     -36.84030000     -71.17900000
C      -45.05770000     -36.66130000     -70.43170000
C      -46.26930000     -36.44810000     -71.07940000
C      -46.34820000     -36.35760000     -72.47460000
C      -45.15690000     -36.55130000     -73.21040000
C      -43.90740000     -36.71180000     -72.56150000
H      -42.92190000     -37.11680000     -70.71620000
H      -47.11720000     -36.24910000     -70.43310000
H      -45.24530000     -36.44760000     -74.36350000
H      -42.98590000     -36.33270000     -73.11960000
C      -47.55850000     -35.91670000     -73.26160000
H      -48.26650000     -36.74170000     -73.44850000
H      -47.16530000     -35.61730000     -74.27200000
C      -45.04990000     -36.75360000     -68.89170000
H      -46.03640000     -36.83820000     -68.33480000
H      -44.43880000     -37.63450000     -68.64540000
S      -48.69020000     -34.71880000     -72.47510000
S      -43.96220000     -35.37340000     -68.30170000
C      -48.07020000     -32.97090000     -72.85800000
H      -48.41320000     -32.73660000     -73.87880000
H      -48.50570000     -32.17980000     -72.23540000
C      -44.69640000     -33.88330000     -69.02790000
H      -44.73880000     -33.18620000     -68.24380000
H      -45.69000000     -34.15870000     -69.47600000
C      -43.80170000     -33.40940000     -70.23900000
H      -42.81320000     -33.55510000     -69.97700000
H      -44.16190000     -33.89740000     -71.15530000
C      -46.56990000     -33.04530000     -72.55080000
H      -46.03200000     -33.57050000     -73.39690000
H      -46.54140000     -33.62890000     -71.65120000
C      -45.83420000     -31.68450000     -72.44050000
C      -46.13240000     -30.61590000     -73.27470000
C      -44.78190000     -31.30090000     -71.45640000
H      -47.00050000     -30.59050000     -73.86340000
C      -44.57050000     -29.93150000     -71.48920000
C      -43.93820000     -31.94650000     -70.46390000
C      -43.18240000     -31.09160000     -69.72000000
S      -45.33000000     -29.12840000     -72.85050000
S      -43.35540000     -29.43440000     -70.27410000
H      -42.47810000     -31.30970000     -68.87820000
