40
Properties=species:S:1:pos:R:3 #=T CELL(abcABC):=T 1.889726e+02=T 90.00000=T Traj:=T positionsangstrom=T Step:=T 0=T Bead:=T pbc="F F F"
C      -47.67200000     -33.42980000     -68.62390000
C      -48.25690000     -33.13410000     -69.85790000
C      -48.30720000     -34.24320000     -70.75270000
C      -47.89090000     -35.55500000     -70.44210000
C      -47.38410000     -35.79620000     -69.13380000
C      -47.21730000     -34.71450000     -68.27410000
H      -47.45450000     -32.64320000     -67.87980000
H      -48.59270000     -34.03220000     -71.73400000
H      -46.81410000     -36.70960000     -68.91790000
H      -46.78340000     -34.89850000     -67.30080000
C      -47.87400000     -36.62830000     -71.44790000
H      -48.87440000     -36.75220000     -71.92570000
H      -47.54970000     -37.58420000     -70.96240000
C      -48.85150000     -31.78030000     -70.15250000
H      -49.94730000     -31.85710000     -70.26580000
H      -48.64410000     -30.99670000     -69.41770000
S      -46.84660000     -36.20850000     -72.89950000
S      -48.28200000     -31.05950000     -71.78530000
C      -45.45050000     -35.41170000     -72.07240000
H      -45.73200000     -34.76700000     -71.21520000
H      -44.93030000     -36.27080000     -71.58720000
C      -46.52090000     -30.72440000     -71.48100000
H      -46.42720000     -30.49630000     -70.39220000
H      -46.22280000     -29.92290000     -72.07340000
C      -45.61140000     -31.88560000     -71.93510000
H      -45.97050000     -32.89100000     -71.52370000
H      -45.72360000     -32.05000000     -73.01990000
C      -44.43920000     -34.74860000     -73.10410000
H      -45.02120000     -34.02340000     -73.68230000
H      -44.18670000     -35.48370000     -73.91520000
C      -43.22770000     -34.06820000     -72.58570000
C      -41.98720000     -34.73420000     -72.62260000
C      -43.16420000     -32.75480000     -71.93920000
H      -41.82830000     -35.65890000     -73.07290000
C      -41.88200000     -32.48310000     -71.52460000
C      -44.15400000     -31.78720000     -71.53690000
C      -43.56080000     -30.69760000     -70.92070000
S      -40.73360000     -33.78110000     -71.73690000
S      -41.79580000     -30.90080000     -70.76400000
H      -44.00650000     -29.82730000     -70.46720000
