40
Properties=species:S:1:pos:R:3 #=T CELL(abcABC):=T 1.889726e+02=T 90.00000=T Traj:=T positionsangstrom=T Step:=T 0=T Bead:=T pbc="F F F"
C      -47.82630000     -32.43570000     -68.73130000
C      -48.44680000     -32.40740000     -69.94340000
C      -48.64230000     -33.63180000     -70.65670000
C      -48.15220000     -34.85860000     -70.21160000
C      -47.57550000     -34.86580000     -68.86150000
C      -47.41590000     -33.64910000     -68.18660000
H      -47.63710000     -31.48080000     -68.14610000
H      -49.14090000     -33.62990000     -71.65710000
H      -47.39530000     -35.84620000     -68.41500000
H      -47.06520000     -33.77740000     -67.16910000
C      -48.04720000     -36.09070000     -71.07820000
H      -49.03720000     -36.49640000     -71.26760000
H      -47.55570000     -36.83590000     -70.54470000
C      -48.92670000     -31.15100000     -70.51390000
H      -49.78430000     -31.28790000     -71.17020000
H      -48.99240000     -30.32390000     -69.85940000
S      -47.22180000     -35.69510000     -72.75760000
S      -47.76140000     -30.48840000     -71.83050000
C      -45.46570000     -35.68690000     -72.25690000
H      -45.35500000     -35.10760000     -71.35550000
H      -45.08780000     -36.67950000     -72.06560000
C      -46.06070000     -30.89930000     -71.16850000
H      -46.15130000     -31.01080000     -70.05550000
H      -45.43240000     -30.01650000     -71.40880000
C      -45.43250000     -32.17210000     -71.78540000
H      -45.99750000     -33.06720000     -71.45440000
H      -45.41150000     -32.04220000     -72.87610000
C      -44.64690000     -35.05940000     -73.33440000
H      -45.17510000     -34.30880000     -73.80990000
H      -44.47150000     -35.81810000     -74.13270000
C      -43.29760000     -34.53240000     -72.85680000
C      -42.09370000     -35.06290000     -73.23330000
C      -43.17110000     -33.42950000     -71.91790000
H      -42.05060000     -35.94130000     -73.88140000
C      -41.83650000     -33.20100000     -71.58900000
C      -44.00150000     -32.43040000     -71.33970000
C      -43.31160000     -31.58190000     -70.51310000
S      -40.72590000     -34.28920000     -72.44250000
S      -41.59020000     -32.08770000     -70.24940000
H      -43.66870000     -30.82130000     -69.81080000
