40
Properties=species:S:1:pos:R:3 #=T CELL(abcABC):=T 1.889726e+02=T 90.00000=T Traj:=T positionsangstrom=T Step:=T 0=T Bead:=T pbc="F F F"
C      -47.90360000     -32.46090000     -68.61300000
C      -48.34460000     -32.35870000     -69.93370000
C      -48.39340000     -33.47800000     -70.69690000
C      -48.03570000     -34.76610000     -70.21780000
C      -47.40120000     -34.82280000     -68.93460000
C      -47.36810000     -33.60610000     -68.12710000
H      -47.89990000     -31.54550000     -68.02870000
H      -48.76970000     -33.45160000     -71.73490000
H      -46.85410000     -35.72530000     -68.63000000
H      -46.92800000     -33.62560000     -67.11910000
C      -48.27490000     -35.98210000     -71.10270000
H      -49.31420000     -36.15880000     -71.34620000
H      -47.81770000     -36.93970000     -70.66510000
C      -48.82500000     -31.00720000     -70.58980000
H      -49.78490000     -31.11630000     -71.09320000
H      -48.99010000     -30.24050000     -69.76540000
S      -47.39780000     -35.71220000     -72.66150000
S      -47.63060000     -30.53590000     -71.93820000
C      -45.57370000     -35.55490000     -72.16850000
H      -45.51090000     -34.90820000     -71.25520000
H      -45.11980000     -36.54990000     -71.87780000
C      -45.97860000     -30.83750000     -71.14540000
H      -46.14610000     -31.00610000     -70.11240000
H      -45.40340000     -29.91560000     -71.23420000
C      -45.32050000     -32.08380000     -71.76210000
H      -46.09640000     -32.89530000     -71.68770000
H      -45.24450000     -31.91110000     -72.82960000
C      -44.78680000     -34.98030000     -73.35270000
H      -45.41790000     -34.14350000     -73.77080000
H      -44.74800000     -35.75490000     -74.11310000
C      -43.40700000     -34.52940000     -72.87180000
C      -42.21310000     -35.10080000     -73.30550000
C      -43.16980000     -33.42060000     -71.93090000
H      -42.22380000     -35.84350000     -74.02810000
C      -41.83600000     -33.31840000     -71.58550000
C      -43.98460000     -32.42050000     -71.26190000
C      -43.23530000     -31.66700000     -70.34820000
S      -40.87770000     -34.50410000     -72.41940000
S      -41.49390000     -32.14890000     -70.35070000
H      -43.49710000     -30.86930000     -69.67310000
