40
Properties=species:S:1:pos:R:3 #=T CELL(abcABC):=T 1.889726e+02=T 90.00000=T Traj:=T positionsangstrom=T Step:=T 0=T Bead:=T pbc="F F F"
C      -47.88410000     -32.35770000     -68.57180000
C      -48.26840000     -32.19020000     -69.89850000
C      -48.42200000     -33.33980000     -70.68720000
C      -48.14680000     -34.64890000     -70.23770000
C      -47.79180000     -34.80720000     -68.86610000
C      -47.64070000     -33.66480000     -68.08750000
H      -47.88460000     -31.51980000     -67.83070000
H      -48.76230000     -33.23880000     -71.73720000
H      -47.40360000     -35.76090000     -68.49850000
H      -47.34160000     -33.85130000     -67.11790000
C      -48.36480000     -35.89560000     -71.11730000
H      -49.46230000     -36.14220000     -71.21580000
H      -47.83340000     -36.76170000     -70.66660000
C      -48.47730000     -30.80780000     -70.40750000
H      -49.46010000     -30.81550000     -70.86850000
H      -48.47750000     -30.02200000     -69.68110000
S      -47.59470000     -35.68650000     -72.83860000
S      -47.37380000     -30.34780000     -71.84760000
C      -45.83450000     -35.50910000     -72.22660000
H      -45.82300000     -35.07690000     -71.24730000
H      -45.47560000     -36.51880000     -72.12910000
C      -45.64450000     -30.52140000     -71.25480000
H      -45.67200000     -30.43490000     -70.12530000
H      -45.06210000     -29.70720000     -71.62900000
C      -45.17390000     -31.95770000     -71.64830000
H      -45.83050000     -32.66100000     -71.11450000
H      -45.31160000     -32.08060000     -72.73670000
C      -44.94990000     -34.80280000     -73.28760000
H      -45.36800000     -33.89110000     -73.68690000
H      -44.81510000     -35.42940000     -74.15600000
C      -43.59520000     -34.56700000     -72.68630000
C      -42.55850000     -35.39290000     -73.02370000
C      -43.14850000     -33.48390000     -71.87040000
H      -42.53120000     -36.17280000     -73.84130000
C      -41.79430000     -33.58550000     -71.59850000
C      -43.73250000     -32.31400000     -71.33300000
C      -42.88600000     -31.64070000     -70.51800000
S      -41.02540000     -34.90990000     -72.40100000
S      -41.31200000     -32.34920000     -70.54450000
H      -43.13030000     -30.85400000     -69.82560000
