40
Properties=species:S:1:pos:R:3 #=T CELL(abcABC):=T 1.889726e+02=T 90.00000=T Traj:=T positionsangstrom=T Step:=T 0=T Bead:=T pbc="F F F"
C      -40.85700000     -34.71220000     -70.93970000
C      -42.12670000     -34.74190000     -70.34070000
C      -43.13160000     -35.41760000     -71.00500000
C      -42.93030000     -35.96010000     -72.21710000
C      -41.68770000     -35.91960000     -72.85570000
C      -40.67310000     -35.27580000     -72.19170000
H      -39.96030000     -34.27500000     -70.40940000
H      -44.13100000     -35.60500000     -70.61130000
H      -41.57400000     -36.49570000     -73.77720000
H      -39.72220000     -35.36700000     -72.72490000
C      -44.02270000     -36.80620000     -72.87040000
H      -44.75000000     -37.28200000     -72.15990000
H      -43.51440000     -37.67320000     -73.36180000
C      -42.51430000     -34.05440000     -69.03040000
H      -43.34360000     -34.51580000     -68.54970000
H      -41.77800000     -34.21650000     -68.22840000
S      -45.05440000     -35.90580000     -74.15940000
S      -42.64940000     -32.24100000     -69.02980000
C      -45.32040000     -34.21820000     -73.36740000
H      -44.35380000     -33.74070000     -73.15600000
H      -45.79240000     -33.68580000     -74.16890000
C      -44.17490000     -31.71020000     -70.01260000
H      -44.04610000     -32.15640000     -71.01170000
H      -44.16740000     -30.60960000     -70.18690000
C      -45.38360000     -32.20530000     -69.13910000
H      -45.28220000     -33.32440000     -68.95650000
H      -45.31250000     -31.71090000     -68.23740000
C      -46.08670000     -34.29360000     -72.04790000
H      -45.46550000     -34.05610000     -71.23820000
H      -46.41170000     -35.42820000     -71.86140000
C      -47.29150000     -33.31050000     -71.91950000
C      -48.21720000     -33.21700000     -72.95180000
C      -47.39490000     -32.23220000     -71.01250000
H      -48.46510000     -33.90690000     -73.76360000
C      -48.55840000     -31.46610000     -71.22850000
C      -46.74850000     -31.84560000     -69.74370000
C      -47.39900000     -30.75950000     -69.15290000
S      -49.40010000     -31.92510000     -72.65390000
S      -48.89150000     -30.30650000     -69.94730000
H      -47.01590000     -30.27630000     -68.21050000
