40
Properties=species:S:1:pos:R:3 #=T CELL(abcABC):=T 1.889726e+02=T 90.00000=T Traj:=T positionsangstrom=T Step:=T 0=T Bead:=T pbc="F F F"
C      -49.28660000     -34.91180000     -70.00680000
C      -49.08820000     -33.98010000     -71.11450000
C      -48.49210000     -32.76570000     -70.97900000
C      -48.14370000     -32.40170000     -69.66840000
C      -48.39060000     -33.22240000     -68.56450000
C      -49.03000000     -34.47400000     -68.73080000
H      -49.78160000     -35.91420000     -70.18990000
H      -48.36910000     -32.08510000     -71.77320000
H      -48.15200000     -32.83170000     -67.58770000
H      -49.30310000     -35.05700000     -67.83640000
C      -47.51240000     -31.06050000     -69.60700000
H      -48.28780000     -30.36980000     -69.28760000
H      -47.37230000     -30.81460000     -70.66380000
C      -49.44500000     -34.55450000     -72.52810000
H      -49.72700000     -35.62070000     -72.42760000
H      -50.29580000     -34.07950000     -72.90890000
S      -45.95290000     -30.80710000     -68.71910000
S      -47.98380000     -34.42670000     -73.65360000
C      -44.89100000     -31.94710000     -69.73000000
H      -44.00210000     -32.41800000     -69.21800000
H      -45.52260000     -32.85370000     -69.96740000
C      -46.38150000     -34.99650000     -72.78880000
H      -46.15980000     -36.02360000     -73.01310000
H      -46.39800000     -34.95190000     -71.64730000
C      -45.23760000     -34.01900000     -73.31570000
H      -45.24950000     -33.95210000     -74.39890000
H      -45.48620000     -33.01120000     -72.90460000
C      -44.48490000     -31.42750000     -71.07250000
H      -44.33070000     -30.37380000     -71.02790000
H      -45.34420000     -31.64100000     -71.73660000
C      -43.22510000     -32.17500000     -71.46800000
C      -42.03560000     -31.66670000     -71.06390000
C      -43.02340000     -33.48680000     -72.07910000
H      -41.83750000     -30.76680000     -70.41850000
C      -41.67190000     -33.88100000     -72.04410000
C      -43.80520000     -34.38760000     -72.94020000
C      -43.18240000     -35.58200000     -73.19100000
S      -40.65530000     -32.74990000     -71.17510000
S      -41.47360000     -35.56730000     -72.66880000
H      -43.57150000     -36.50050000     -73.56470000
