40
Properties=species:S:1:pos:R:3 #=T CELL(abcABC):=T 1.889726e+02=T 90.00000=T Traj:=T positionsangstrom=T Step:=T 0=T Bead:=T pbc="F F F"
C      -47.87820000     -32.37540000     -68.55000000
C      -48.21490000     -31.96700000     -69.86080000
C      -48.54600000     -32.92590000     -70.80310000
C      -48.36800000     -34.26730000     -70.52660000
C      -48.11060000     -34.65220000     -69.24960000
C      -47.80400000     -33.76040000     -68.26550000
H      -47.36580000     -31.67520000     -67.81740000
H      -48.89050000     -32.66890000     -71.78300000
H      -48.05380000     -35.71880000     -69.04350000
H      -47.48570000     -34.16800000     -67.24550000
C      -48.71400000     -35.34520000     -71.53210000
H      -49.83130000     -35.35510000     -71.78110000
H      -48.51390000     -36.29860000     -70.95740000
C      -48.22600000     -30.48880000     -70.18880000
H      -49.14660000     -30.22480000     -70.65310000
H      -48.29960000     -29.93940000     -69.17790000
S      -47.73960000     -35.37490000     -73.11350000
S      -46.92200000     -30.04020000     -71.37420000
C      -46.07590000     -35.37820000     -72.27550000
H      -46.19290000     -34.56530000     -71.55830000
H      -45.89410000     -36.30160000     -71.74680000
C      -45.37880000     -30.92100000     -70.91090000
H      -45.61460000     -31.50820000     -69.99990000
H      -44.51510000     -30.31200000     -70.63760000
C      -44.90710000     -31.71520000     -72.16200000
H      -45.70370000     -32.35930000     -72.44590000
H      -44.79710000     -31.11370000     -73.03400000
C      -44.97460000     -35.10640000     -73.25910000
H      -45.19740000     -34.20210000     -73.84070000
H      -44.93070000     -35.84430000     -74.04640000
C      -43.68990000     -34.89620000     -72.51900000
C      -42.77190000     -35.95960000     -72.45100000
C      -43.21780000     -33.73550000     -71.81890000
H      -42.93680000     -36.88410000     -72.84220000
C      -41.85430000     -33.92130000     -71.40860000
C      -43.58530000     -32.34250000     -71.78730000
C      -42.60590000     -31.52260000     -71.27430000
S      -41.27290000     -35.58560000     -71.56820000
S      -41.13430000     -32.41240000     -70.95570000
H      -42.55250000     -30.44600000     -71.08520000
