40
Properties=species:S:1:pos:R:3 #=T CELL(abcABC):=T 1.889726e+02=T 90.00000=T Traj:=T positionsangstrom=T Step:=T 0=T Bead:=T pbc="F F F"
C      -47.81200000     -32.41180000     -68.63690000
C      -48.14410000     -31.94580000     -69.92190000
C      -48.52540000     -32.97300000     -70.84300000
C      -48.51370000     -34.28580000     -70.53330000
C      -48.11890000     -34.69700000     -69.27030000
C      -47.75230000     -33.79820000     -68.28380000
H      -47.51390000     -31.69350000     -67.83420000
H      -48.65800000     -32.69250000     -71.92510000
H      -48.20670000     -35.78310000     -69.01000000
H      -47.62380000     -34.02550000     -67.17820000
C      -48.96080000     -35.27490000     -71.57170000
H      -49.93680000     -35.05240000     -71.92220000
H      -49.10930000     -36.26280000     -71.22330000
C      -48.11600000     -30.51050000     -70.19260000
H      -49.02750000     -30.11080000     -70.58220000
H      -47.79150000     -29.97620000     -69.30310000
S      -47.83070000     -35.22470000     -72.95340000
S      -46.91800000     -29.80900000     -71.43260000
C      -46.15100000     -35.41120000     -72.29400000
H      -45.97160000     -34.84830000     -71.37050000
H      -45.99770000     -36.37830000     -71.86430000
C      -45.39350000     -30.81920000     -71.10420000
H      -45.60940000     -31.42380000     -70.26320000
H      -44.59600000     -30.11560000     -70.89170000
C      -44.88010000     -31.90910000     -72.16810000
H      -45.49140000     -32.91630000     -72.11460000
H      -45.08320000     -31.44800000     -73.15460000
C      -45.01370000     -35.13820000     -73.22710000
H      -45.14930000     -34.28690000     -73.87000000
H      -44.92740000     -36.00520000     -73.93970000
C      -43.70690000     -34.94330000     -72.50670000
C      -42.93900000     -36.05110000     -72.09380000
C      -42.98230000     -33.75060000     -72.13160000
H      -43.20530000     -37.04530000     -72.30940000
C      -41.71560000     -33.96770000     -71.52590000
C      -43.42560000     -32.34950000     -72.06610000
C      -42.42770000     -31.58250000     -71.53170000
S      -41.43460000     -35.67790000     -71.23630000
S      -41.00260000     -32.46790000     -70.97830000
H      -42.40430000     -30.53830000     -71.39000000
