40
Properties=species:S:1:pos:R:3 #=T CELL(abcABC):=T 1.889726e+02=T 90.00000=T Traj:=T positionsangstrom=T Step:=T 0=T Bead:=T pbc="F F F"
C      -48.07990000     -31.78930000     -68.74230000
C      -48.08820000     -31.43990000     -70.13270000
C      -48.29700000     -32.52620000     -71.05040000
C      -48.70970000     -33.77680000     -70.63430000
C      -48.67740000     -34.11540000     -69.24810000
C      -48.37140000     -33.05630000     -68.29360000
H      -47.95160000     -30.99210000     -68.06310000
H      -48.33440000     -32.32500000     -72.09990000
H      -49.03260000     -35.05440000     -68.89470000
H      -48.40320000     -33.24260000     -67.25730000
C      -48.99590000     -34.92180000     -71.57110000
H      -50.00500000     -34.93620000     -72.10240000
H      -49.07080000     -35.83120000     -71.01330000
C      -47.69010000     -30.10810000     -70.62990000
H      -48.55980000     -29.45530000     -70.80640000
H      -47.11710000     -29.57490000     -69.81590000
S      -47.76050000     -35.09380000     -73.00180000
S      -46.64640000     -30.08710000     -72.11040000
C      -46.23160000     -35.45010000     -72.02870000
H      -46.21240000     -34.79640000     -71.09300000
H      -46.21990000     -36.45680000     -71.51690000
C      -45.20450000     -31.01660000     -71.45310000
H      -45.57150000     -31.68390000     -70.66580000
H      -44.57620000     -30.26170000     -70.96040000
C      -44.50450000     -31.88030000     -72.59490000
H      -45.19330000     -32.49170000     -73.12950000
H      -44.09480000     -31.13180000     -73.33960000
C      -45.00080000     -35.37790000     -72.93500000
H      -45.02470000     -34.40460000     -73.46640000
H      -44.97840000     -36.20340000     -73.60590000
C      -43.75760000     -35.29750000     -72.08570000
C      -43.09150000     -36.38160000     -71.59110000
C      -43.13370000     -34.02860000     -71.73630000
H      -43.45520000     -37.40070000     -71.78310000
C      -41.94800000     -34.24730000     -71.11310000
C      -43.31990000     -32.60270000     -71.94080000
C      -42.23580000     -31.89750000     -71.40660000
S      -41.52980000     -35.96430000     -70.98110000
S      -40.97560000     -32.85770000     -70.74740000
H      -42.16170000     -30.87310000     -71.41260000
