40
Properties=species:S:1:pos:R:3 #=T CELL(abcABC):=T 1.889726e+02=T 90.00000=T Traj:=T positionsangstrom=T Step:=T 0=T Bead:=T pbc="F F F"
C      -48.57480000     -30.83090000     -69.38990000
C      -48.29090000     -31.11400000     -70.76250000
C      -48.61240000     -32.35930000     -71.19960000
C      -49.05940000     -33.43990000     -70.40810000
C      -49.24840000     -33.12210000     -69.03010000
C      -49.17990000     -31.78140000     -68.59600000
H      -48.31860000     -29.84160000     -69.04380000
H      -48.36620000     -32.51470000     -72.28980000
H      -49.58720000     -33.98010000     -68.48480000
H      -49.63050000     -31.57620000     -67.68130000
C      -49.06600000     -34.89460000     -71.08200000
H      -50.00890000     -35.18210000     -71.53560000
H      -48.87430000     -35.69450000     -70.32220000
C      -47.79620000     -30.16470000     -71.78410000
H      -48.54820000     -29.97960000     -72.52800000
H      -47.58600000     -29.16770000     -71.41090000
S      -47.89450000     -35.14000000     -72.51120000
S      -46.32830000     -30.78210000     -72.69750000
C      -46.25070000     -34.76020000     -71.69930000
H      -46.35900000     -33.77020000     -71.32750000
H      -46.01520000     -35.41620000     -70.87360000
C      -44.81290000     -30.86780000     -71.57430000
H      -45.26880000     -31.34450000     -70.68360000
H      -44.58060000     -29.79790000     -71.36820000
C      -43.69450000     -31.70720000     -72.28090000
H      -44.24080000     -32.41730000     -72.88630000
H      -43.09260000     -31.17910000     -73.06970000
C      -45.16590000     -34.75900000     -72.75430000
H      -45.29120000     -33.86150000     -73.38890000
H      -45.48460000     -35.57100000     -73.46930000
C      -43.76320000     -35.11210000     -72.18920000
C      -43.19800000     -36.38780000     -72.16560000
C      -42.84330000     -34.12100000     -71.64490000
H      -43.66140000     -37.27350000     -72.48400000
C      -41.77660000     -34.74570000     -71.03040000
C      -42.84570000     -32.66440000     -71.45260000
C      -41.78150000     -32.32050000     -70.71540000
S      -41.67860000     -36.47770000     -71.21240000
S      -40.76070000     -33.61340000     -70.13540000
H      -41.58770000     -31.32620000     -70.40440000
