40
Properties=species:S:1:pos:R:3 #=T CELL(abcABC):=T 1.889726e+02=T 90.00000=T Traj:=T positionsangstrom=T Step:=T 0=T Bead:=T pbc="F F F"
C      -48.01510000     -30.85130000     -69.40580000
C      -47.86250000     -31.02730000     -70.84200000
C      -48.22780000     -32.32500000     -71.30170000
C      -48.71150000     -33.34500000     -70.47370000
C      -48.96570000     -33.11770000     -69.07400000
C      -48.57090000     -31.85980000     -68.60130000
H      -47.76520000     -29.90270000     -69.02610000
H      -48.14440000     -32.45170000     -72.37920000
H      -49.48980000     -33.84800000     -68.48190000
H      -48.75860000     -31.69900000     -67.45520000
C      -49.13340000     -34.69720000     -71.07350000
H      -50.15470000     -34.55500000     -71.50420000
H      -49.22530000     -35.40710000     -70.22070000
C      -47.46610000     -29.87180000     -71.74940000
H      -48.16310000     -29.77010000     -72.54790000
H      -47.24190000     -29.02000000     -71.08430000
S      -48.11220000     -35.16150000     -72.51110000
S      -45.85180000     -30.08500000     -72.76400000
C      -46.49670000     -35.25880000     -71.58140000
H      -46.51950000     -34.60800000     -70.72640000
H      -46.36790000     -36.30840000     -71.20070000
C      -44.77910000     -31.17030000     -71.78180000
H      -45.29460000     -32.11880000     -71.51290000
H      -44.50360000     -30.67080000     -70.86290000
C      -43.48890000     -31.63580000     -72.58500000
H      -43.58800000     -32.05940000     -73.57450000
H      -42.71620000     -30.81850000     -72.66210000
C      -45.46410000     -34.94360000     -72.64170000
H      -45.59250000     -33.85650000     -72.82400000
H      -45.77590000     -35.49000000     -73.56700000
C      -44.08090000     -35.20010000     -72.14520000
C      -43.75620000     -36.47660000     -71.77730000
C      -43.07440000     -34.23930000     -71.72930000
H      -44.38000000     -37.37370000     -71.90840000
C      -42.08100000     -34.88390000     -71.02000000
C      -42.78300000     -32.79630000     -71.78080000
C      -41.75790000     -32.42920000     -70.96390000
S      -42.31230000     -36.56320000     -70.77240000
S      -40.90100000     -33.78820000     -70.24680000
H      -41.26350000     -31.51400000     -70.90210000
