40
Properties=species:S:1:pos:R:3 #=T CELL(abcABC):=T 1.889726e+02=T 90.00000=T Traj:=T positionsangstrom=T Step:=T 0=T Bead:=T pbc="F F F"
C      -44.56500000     -36.63380000     -73.07020000
C      -45.87160000     -36.28270000     -72.85380000
C      -46.43740000     -35.26180000     -73.57980000
C      -45.76710000     -34.70800000     -74.67000000
C      -44.42320000     -34.99790000     -74.89240000
C      -43.82240000     -36.03320000     -74.10300000
H      -44.07090000     -37.27960000     -72.39730000
H      -47.43680000     -34.92580000     -73.42880000
H      -43.86270000     -34.53330000     -75.67900000
H      -42.78510000     -36.38720000     -74.26230000
C      -46.39260000     -33.55210000     -75.44610000
H      -47.47130000     -33.38400000     -75.26760000
H      -46.15600000     -33.65720000     -76.52880000
C      -46.71890000     -36.97740000     -71.85440000
H      -47.68830000     -36.46670000     -71.75050000
H      -46.94940000     -37.99580000     -72.25110000
S      -45.36590000     -32.03410000     -74.94380000
S      -45.93060000     -37.17730000     -70.16480000
C      -45.68670000     -31.89880000     -73.13350000
H      -46.01370000     -30.87100000     -72.93210000
H      -46.50840000     -32.56490000     -72.84890000
C      -45.21840000     -35.49420000     -69.88990000
H      -44.61890000     -35.38560000     -70.77690000
H      -44.51470000     -35.57480000     -68.99390000
C      -46.21730000     -34.32910000     -69.79560000
H      -46.44840000     -34.07440000     -70.79150000
H      -47.06210000     -34.67530000     -69.23900000
C      -44.48390000     -32.25730000     -72.22400000
H      -43.60990000     -32.01040000     -72.69830000
H      -44.51330000     -33.29450000     -72.00340000
C      -44.51190000     -31.47510000     -70.83680000
C      -43.96280000     -30.20720000     -70.76560000
C      -45.01940000     -31.85330000     -69.52370000
H      -43.28080000     -29.80870000     -71.48720000
C      -44.85760000     -30.89900000     -68.57140000
C      -45.73670000     -33.04330000     -69.08580000
C      -46.06400000     -32.89930000     -67.80440000
S      -44.13160000     -29.42970000     -69.23910000
S      -45.58740000     -31.42260000     -67.04260000
H      -46.59960000     -33.61060000     -67.22000000
