40
Properties=species:S:1:pos:R:3 #=T CELL(abcABC):=T 1.889726e+02=T 90.00000=T Traj:=T positionsangstrom=T Step:=T 0=T Bead:=T pbc="F F F"
C      -44.85170000     -36.84580000     -73.00700000
C      -46.16830000     -36.40100000     -72.81770000
C      -46.62460000     -35.31120000     -73.59120000
C      -45.79640000     -34.68010000     -74.52140000
C      -44.46290000     -35.13360000     -74.65650000
C      -43.95680000     -36.22480000     -73.93460000
H      -44.46960000     -37.67390000     -72.32540000
H      -47.56140000     -34.85940000     -73.30780000
H      -43.91730000     -34.51940000     -75.39170000
H      -42.89720000     -36.50010000     -74.06880000
C      -46.31400000     -33.51250000     -75.36150000
H      -47.35380000     -33.54160000     -75.09040000
H      -46.38190000     -33.74150000     -76.46130000
C      -46.91130000     -36.97760000     -71.65860000
H      -47.79210000     -36.28080000     -71.45560000
H      -47.26700000     -37.97830000     -71.78530000
S      -45.55440000     -31.83680000     -74.91860000
S      -45.88990000     -37.12640000     -70.03600000
C      -45.71490000     -31.61370000     -73.09650000
H      -45.62230000     -30.54140000     -72.96850000
H      -46.68250000     -31.89580000     -72.67990000
C      -45.18020000     -35.41660000     -69.68830000
H      -44.24510000     -35.24680000     -70.21740000
H      -45.05870000     -35.33710000     -68.59220000
C      -46.13430000     -34.26720000     -69.93750000
H      -46.36110000     -34.07240000     -71.05480000
H      -47.11940000     -34.57200000     -69.57920000
C      -44.49320000     -32.22200000     -72.33450000
H      -43.55690000     -32.11970000     -72.94180000
H      -44.49550000     -33.29130000     -72.25160000
C      -44.42590000     -31.54240000     -71.00320000
C      -43.79830000     -30.29850000     -70.90030000
C      -44.98450000     -31.97150000     -69.73320000
H      -43.18790000     -29.86680000     -71.67720000
C      -44.73300000     -30.98860000     -68.75610000
C      -45.72720000     -33.04460000     -69.21690000
C      -45.99320000     -32.87160000     -67.89200000
S      -43.86520000     -29.60850000     -69.25600000
S      -45.48360000     -31.32290000     -67.21820000
H      -46.57350000     -33.64970000     -67.40220000
