40
Properties=species:S:1:pos:R:3 #=T CELL(abcABC):=T 1.889726e+02=T 90.00000=T Traj:=T positionsangstrom=T Step:=T 0=T Bead:=T pbc="F F F"
C      -44.96010000     -36.99740000     -72.96100000
C      -46.20880000     -36.39300000     -72.63900000
C      -46.55230000     -35.19030000     -73.25640000
C      -45.84160000     -34.59170000     -74.28120000
C      -44.68100000     -35.25330000     -74.66570000
C      -44.17820000     -36.39570000     -73.92810000
H      -44.88110000     -37.98750000     -72.40480000
H      -47.53990000     -34.71590000     -73.03640000
H      -44.12290000     -34.76390000     -75.48430000
H      -43.17620000     -36.75150000     -74.07460000
C      -46.49540000     -33.45460000     -75.01760000
H      -47.56420000     -33.36730000     -74.70160000
H      -46.47930000     -33.57180000     -76.08860000
C      -47.01010000     -36.93120000     -71.46930000
H      -47.87930000     -36.31540000     -71.29650000
H      -47.46340000     -37.89030000     -71.65590000
S      -45.70580000     -31.82470000     -74.93840000
S      -45.96890000     -37.12130000     -69.98290000
C      -45.67290000     -31.46710000     -73.14740000
H      -45.59390000     -30.38320000     -73.06910000
H      -46.61730000     -31.83590000     -72.73310000
C      -45.28410000     -35.38180000     -69.82430000
H      -44.33000000     -35.39540000     -70.45120000
H      -44.84790000     -35.32110000     -68.85760000
C      -46.20300000     -34.15540000     -70.13770000
H      -46.22580000     -33.88720000     -71.21100000
H      -47.18560000     -34.44520000     -69.94890000
C      -44.53840000     -32.21300000     -72.40970000
H      -43.54600000     -32.12640000     -73.00490000
H      -44.86110000     -33.26660000     -72.45040000
C      -44.26580000     -31.59350000     -71.06160000
C      -43.44070000     -30.48400000     -70.98130000
C      -44.88360000     -31.87900000     -69.79270000
H      -43.00630000     -29.97390000     -71.82870000
C      -44.62310000     -30.90850000     -68.76600000
C      -45.75810000     -32.92890000     -69.35750000
C      -46.13540000     -32.71180000     -68.06090000
S      -43.55550000     -29.71990000     -69.35420000
S      -45.33670000     -31.38910000     -67.26620000
H      -46.91970000     -33.26970000     -67.52760000
