40
Properties=species:S:1:pos:R:3 #=T CELL(abcABC):=T 1.889726e+02=T 90.00000=T Traj:=T positionsangstrom=T Step:=T 0=T Bead:=T pbc="F F F"
C      -44.95500000     -36.92970000     -73.00920000
C      -46.18840000     -36.41510000     -72.51480000
C      -46.76920000     -35.32620000     -73.20220000
C      -46.14160000     -34.61660000     -74.23970000
C      -44.95060000     -35.14270000     -74.69340000
C      -44.34490000     -36.31400000     -74.14220000
H      -44.46560000     -37.70870000     -72.47360000
H      -47.77520000     -35.03340000     -72.89390000
H      -44.60820000     -34.72530000     -75.63350000
H      -43.47420000     -36.79700000     -74.63990000
C      -46.79380000     -33.56180000     -75.04610000
H      -47.84580000     -33.26990000     -74.95350000
H      -46.70180000     -33.93710000     -76.08630000
C      -46.87740000     -37.08360000     -71.36910000
H      -47.86360000     -36.64990000     -71.22680000
H      -46.90150000     -38.23960000     -71.47450000
S      -45.79530000     -31.96260000     -74.99180000
S      -45.99210000     -36.82760000     -69.68230000
C      -45.60650000     -31.59010000     -73.16600000
H      -45.59100000     -30.48430000     -73.06650000
H      -46.47640000     -31.96090000     -72.54670000
C      -45.24450000     -35.24910000     -69.88270000
H      -44.63450000     -35.31660000     -70.77290000
H      -44.54780000     -35.00600000     -69.04980000
C      -46.35480000     -34.16660000     -69.93070000
H      -46.69300000     -33.98110000     -70.92050000
H      -47.16130000     -34.42900000     -69.21340000
C      -44.32250000     -32.12970000     -72.55910000
H      -43.56100000     -31.77380000     -73.14250000
H      -44.25000000     -33.19540000     -72.49040000
C      -44.15010000     -31.52700000     -71.17530000
C      -43.42530000     -30.36870000     -70.96820000
C      -44.77200000     -31.95720000     -69.92110000
H      -42.83210000     -29.82290000     -71.68100000
C      -44.54160000     -31.03970000     -68.86970000
C      -45.71030000     -32.89600000     -69.41100000
C      -46.02910000     -32.75520000     -68.08900000
S      -43.30200000     -29.84490000     -69.36150000
S      -45.31550000     -31.35520000     -67.34690000
H      -46.70270000     -33.33920000     -67.47470000
