40
Properties=species:S:1:pos:R:3 #=T CELL(abcABC):=T 1.889726e+02=T 90.00000=T Traj:=T positionsangstrom=T Step:=T 0=T Bead:=T pbc="F F F"
C      -47.04860000     -31.16570000     -69.50760000
C      -47.49610000     -30.93900000     -70.80720000
C      -48.30150000     -31.91840000     -71.48880000
C      -48.58210000     -33.06590000     -70.77940000
C      -48.15990000     -33.26730000     -69.47660000
C      -47.27670000     -32.35850000     -68.85820000
H      -46.58600000     -30.34260000     -68.93930000
H      -48.37890000     -31.86570000     -72.53250000
H      -48.33570000     -34.23260000     -68.96730000
H      -46.96010000     -32.50970000     -67.84020000
C      -49.37810000     -34.15000000     -71.44870000
H      -50.36840000     -33.79090000     -71.86370000
H      -49.57850000     -34.86380000     -70.69050000
C      -47.07080000     -29.69420000     -71.59190000
H      -47.83690000     -29.28920000     -72.23580000
H      -46.60600000     -28.91910000     -70.98780000
S      -48.42260000     -34.87340000     -72.90420000
S      -45.82780000     -30.25680000     -72.91690000
C      -46.91640000     -35.75530000     -72.22850000
H      -47.26330000     -36.18800000     -71.33090000
H      -46.42450000     -36.54420000     -72.92250000
C      -44.62440000     -31.21590000     -71.94800000
H      -45.12880000     -31.91270000     -71.26650000
H      -44.03890000     -30.55140000     -71.30170000
C      -43.62330000     -32.01900000     -72.80220000
H      -44.27490000     -32.27560000     -73.67950000
H      -42.93220000     -31.25460000     -73.23990000
C      -45.89540000     -34.68330000     -71.87010000
H      -46.35560000     -34.10310000     -71.04430000
H      -45.79720000     -34.04320000     -72.70740000
C      -44.51640000     -35.06030000     -71.27410000
C      -44.29530000     -36.31530000     -70.69020000
C      -43.42360000     -34.17390000     -71.22700000
H      -44.87890000     -37.26280000     -70.77870000
C      -42.33410000     -34.77670000     -70.49890000
C      -42.90940000     -33.00400000     -71.94830000
C      -41.58000000     -32.85920000     -71.74920000
S      -42.66690000     -36.36380000     -69.92820000
S      -40.80890000     -33.97950000     -70.60510000
H      -41.03350000     -31.98840000     -72.16610000
