40
Properties=species:S:1:pos:R:3 #=T CELL(abcABC):=T 1.889726e+02=T 90.00000=T Traj:=T positionsangstrom=T Step:=T 0=T Bead:=T pbc="F F F"
C      -47.11460000     -31.40770000     -69.32440000
C      -47.31540000     -31.08040000     -70.68010000
C      -48.27730000     -31.87790000     -71.32680000
C      -48.76750000     -33.05000000     -70.74080000
C      -48.58830000     -33.29740000     -69.37280000
C      -47.70550000     -32.43320000     -68.66620000
H      -46.50720000     -30.77580000     -68.71390000
H      -48.37880000     -31.71540000     -72.34850000
H      -48.91380000     -34.21350000     -68.91040000
H      -47.68790000     -32.55550000     -67.58830000
C      -49.54510000     -34.06060000     -71.54030000
H      -50.30590000     -33.54490000     -72.20220000
H      -50.00820000     -34.78740000     -70.85560000
C      -46.70430000     -29.92730000     -71.39190000
H      -47.56430000     -29.38410000     -71.83880000
H      -46.24150000     -29.23650000     -70.67500000
S      -48.46110000     -34.79490000     -72.80990000
S      -45.64740000     -30.32490000     -72.79450000
C      -47.08560000     -35.23530000     -71.71980000
H      -47.40040000     -35.25600000     -70.66890000
H      -46.80390000     -36.35860000     -71.87360000
C      -44.17730000     -31.13700000     -71.98110000
H      -44.47490000     -31.91210000     -71.22700000
H      -43.52570000     -30.41140000     -71.49770000
C      -43.39440000     -32.05300000     -73.04390000
H      -44.12930000     -32.44880000     -73.77240000
H      -42.71990000     -31.48490000     -73.73140000
C      -45.82130000     -34.38530000     -72.13440000
H      -46.06320000     -33.29760000     -72.06640000
H      -45.79370000     -34.59670000     -73.23360000
C      -44.61040000     -34.76790000     -71.30170000
C      -44.65880000     -35.76310000     -70.39520000
C      -43.23230000     -34.19280000     -71.55330000
H      -45.54800000     -36.12790000     -69.85010000
C      -42.34510000     -34.96250000     -70.73320000
C      -42.57840000     -33.16470000     -72.32620000
C      -41.20440000     -33.24250000     -72.21870000
S      -43.07060000     -36.14160000     -69.73000000
S      -40.66970000     -34.39590000     -70.94700000
H      -40.45820000     -32.55250000     -72.71710000
