40
Properties=species:S:1:pos:R:3 #=T CELL(abcABC):=T 1.889726e+02=T 90.00000=T Traj:=T positionsangstrom=T Step:=T 0=T Bead:=T pbc="F F F"
C      -47.19570000     -31.38840000     -69.21920000
C      -47.25390000     -31.13120000     -70.62020000
C      -48.07870000     -31.96200000     -71.34740000
C      -48.87450000     -32.93800000     -70.76350000
C      -48.78140000     -33.15790000     -69.36740000
C      -47.94810000     -32.36740000     -68.60640000
H      -46.53080000     -30.79080000     -68.59680000
H      -48.23630000     -31.78730000     -72.40710000
H      -49.35870000     -33.92470000     -68.88270000
H      -47.80670000     -32.60110000     -67.51900000
C      -49.68630000     -33.89090000     -71.55300000
H      -50.44270000     -33.42930000     -72.16660000
H      -50.12570000     -34.58200000     -70.86900000
C      -46.51460000     -29.96650000     -71.25380000
H      -47.24610000     -29.31890000     -71.67190000
H      -45.90660000     -29.43200000     -70.46970000
S      -48.66940000     -34.82750000     -72.77770000
S      -45.43990000     -30.39400000     -72.68750000
C      -47.01750000     -35.19150000     -71.98730000
H      -47.14720000     -35.02590000     -70.92650000
H      -46.78040000     -36.12190000     -72.31710000
C      -43.99190000     -31.27040000     -71.93190000
H      -44.36990000     -31.79320000     -71.07690000
H      -43.20190000     -30.59400000     -71.60980000
C      -43.41020000     -32.13470000     -73.04400000
H      -44.18750000     -32.64460000     -73.54060000
H      -42.89260000     -31.48450000     -73.75410000
C      -45.81770000     -34.30810000     -72.23130000
H      -46.06360000     -33.32610000     -71.83000000
H      -45.39950000     -34.19090000     -73.24150000
C      -44.59880000     -34.76500000     -71.30990000
C      -44.62560000     -35.68730000     -70.32790000
C      -43.27450000     -34.14310000     -71.56740000
H      -45.51620000     -36.19410000     -69.89470000
C      -42.39280000     -34.85160000     -70.72240000
C      -42.57170000     -33.20980000     -72.42240000
C      -41.19090000     -33.25180000     -72.21680000
S      -43.03540000     -36.00380000     -69.60470000
S      -40.69680000     -34.61440000     -71.20760000
H      -40.36960000     -32.65510000     -72.63130000
