40
Properties=species:S:1:pos:R:3 #=T CELL(abcABC):=T 1.889726e+02=T 90.00000=T Traj:=T positionsangstrom=T Step:=T 0=T Bead:=T pbc="F F F"
C      -45.37830000     -29.81080000     -69.69400000
C      -44.32140000     -30.45320000     -70.40810000
C      -43.56580000     -31.50220000     -69.87840000
C      -43.93540000     -31.97210000     -68.61290000
C      -45.01360000     -31.36230000     -67.92780000
C      -45.70590000     -30.28700000     -68.41740000
H      -45.95710000     -28.98160000     -70.04750000
H      -42.62750000     -31.85190000     -70.38370000
H      -45.17350000     -31.72820000     -66.91440000
H      -46.63990000     -29.90200000     -67.81940000
C      -43.35700000     -33.21890000     -67.91990000
H      -44.16620000     -33.88640000     -67.70750000
H      -42.76270000     -33.06440000     -67.03180000
C      -43.82430000     -29.85880000     -71.79460000
H      -43.37100000     -28.81510000     -71.74630000
H      -42.97110000     -30.50560000     -72.20930000
S      -42.23500000     -34.21750000     -69.15010000
S      -45.17280000     -29.77600000     -73.05960000
C      -43.32900000     -34.74680000     -70.46200000
H      -43.13430000     -34.24970000     -71.39210000
H      -43.04080000     -35.77380000     -70.71390000
C      -45.34300000     -31.57210000     -73.54420000
H      -44.29390000     -31.90740000     -73.85810000
H      -46.09030000     -31.47820000     -74.29970000
C      -45.82240000     -32.43370000     -72.34630000
H      -44.92180000     -32.60600000     -71.82800000
H      -46.57870000     -31.89290000     -71.77920000
C      -44.82830000     -34.79440000     -70.09200000
H      -45.18990000     -33.73220000     -69.93540000
H      -44.82900000     -35.30420000     -69.10740000
C      -45.70320000     -35.58040000     -71.06940000
C      -45.92710000     -36.88270000     -70.96480000
C      -46.31580000     -35.02430000     -72.25700000
H      -45.63370000     -37.59550000     -70.07510000
C      -47.08350000     -36.04950000     -72.94410000
C      -46.52230000     -33.72200000     -72.86220000
C      -47.32510000     -33.77160000     -73.92440000
S      -47.14570000     -37.59200000     -72.09950000
S      -47.84080000     -35.33370000     -74.35770000
H      -47.60680000     -32.93370000     -74.56050000
