40
Properties=species:S:1:pos:R:3 #=T CELL(abcABC):=T 1.889726e+02=T 90.00000=T Traj:=T positionsangstrom=T Step:=T 0=T Bead:=T pbc="F F F"
C      -45.48400000     -29.86680000     -69.54190000
C      -44.40010000     -30.26240000     -70.34040000
C      -43.39360000     -31.17450000     -69.86030000
C      -43.65370000     -31.92520000     -68.68880000
C      -44.89440000     -31.67410000     -68.00410000
C      -45.78380000     -30.67510000     -68.45700000
H      -46.15480000     -29.11500000     -70.03440000
H      -42.48930000     -31.31590000     -70.40110000
H      -45.15500000     -32.40930000     -67.25220000
H      -46.61840000     -30.52610000     -67.87180000
C      -42.72960000     -32.91740000     -68.07310000
H      -43.12600000     -33.27990000     -67.12440000
H      -41.79640000     -32.36900000     -67.75880000
C      -44.13040000     -29.56340000     -71.62670000
H      -44.33190000     -28.51770000     -71.31590000
H      -43.05210000     -29.70860000     -71.94510000
S      -42.23460000     -34.33410000     -69.15010000
S      -45.32730000     -29.74800000     -73.08710000
C      -43.41060000     -34.51440000     -70.53740000
H      -43.41650000     -33.59840000     -71.14940000
H      -42.99140000     -35.34030000     -71.09150000
C      -45.38900000     -31.51570000     -73.54530000
H      -44.43530000     -31.81050000     -73.89530000
H      -46.26310000     -31.52430000     -74.26510000
C      -45.83360000     -32.45230000     -72.35550000
H      -44.94890000     -32.66170000     -71.72520000
H      -46.52210000     -31.97370000     -71.71650000
C      -44.89200000     -34.82380000     -70.10240000
H      -45.36820000     -33.94220000     -69.73370000
H      -44.85020000     -35.45120000     -69.17510000
C      -45.69440000     -35.61770000     -71.05750000
C      -45.83150000     -36.98320000     -71.02700000
C      -46.38510000     -35.06680000     -72.22210000
H      -45.25120000     -37.67060000     -70.34940000
C      -47.05940000     -36.07150000     -72.90560000
C      -46.57100000     -33.78690000     -72.82030000
C      -47.57640000     -33.73810000     -73.75910000
S      -46.85980000     -37.65090000     -72.27500000
S      -48.05020000     -35.40830000     -74.24050000
H      -47.99740000     -32.86150000     -74.19970000
