40
Properties=species:S:1:pos:R:3 #=T CELL(abcABC):=T 1.889726e+02=T 90.00000=T Traj:=T positionsangstrom=T Step:=T 0=T Bead:=T pbc="F F F"
C      -49.00300000     -35.23620000     -69.70130000
C      -48.88920000     -34.58560000     -70.97690000
C      -48.69200000     -33.21200000     -71.00810000
C      -48.46230000     -32.51240000     -69.78830000
C      -48.66670000     -33.09650000     -68.55860000
C      -48.73440000     -34.47640000     -68.54640000
H      -49.16480000     -36.27690000     -69.67880000
H      -48.50430000     -32.71460000     -71.96350000
H      -48.46220000     -32.48410000     -67.68450000
H      -48.65870000     -34.97370000     -67.58550000
C      -48.09870000     -31.03890000     -69.79990000
H      -48.75760000     -30.60630000     -69.04470000
H      -48.15980000     -30.48470000     -70.74050000
C      -48.98430000     -35.37540000     -72.21870000
H      -48.79810000     -36.46220000     -71.98150000
H      -49.97910000     -35.19670000     -72.62930000
S      -46.36740000     -30.87220000     -69.15670000
S      -47.76700000     -34.77340000     -73.52310000
C      -45.29190000     -31.99290000     -70.18540000
H      -44.98020000     -32.81060000     -69.47020000
H      -45.91240000     -32.47320000     -70.95280000
C      -46.13650000     -34.66330000     -72.63100000
H      -45.61230000     -35.61990000     -72.72480000
H      -46.30510000     -34.49150000     -71.54690000
C      -45.30840000     -33.51260000     -73.24490000
H      -45.52390000     -33.42290000     -74.32580000
H      -45.56640000     -32.51260000     -72.79030000
C      -44.11080000     -31.14410000     -70.80380000
H      -43.74880000     -30.32470000     -70.14240000
H      -44.45190000     -30.74670000     -71.72620000
C      -42.96740000     -32.02200000     -71.14340000
C      -41.79310000     -31.81540000     -70.51740000
C      -42.93460000     -33.20810000     -72.03220000
H      -41.58580000     -31.11140000     -69.75460000
C      -41.69760000     -33.83250000     -71.95200000
C      -43.81290000     -33.76560000     -73.03710000
C      -43.18680000     -34.79410000     -73.71740000
S      -40.57230000     -33.02160000     -70.86000000
S      -41.60790000     -35.16280000     -73.10640000
H      -43.72660000     -35.48930000     -74.43010000
