40
Properties=species:S:1:pos:R:3 #=T CELL(abcABC):=T 1.889726e+02=T 90.00000=T Traj:=T positionsangstrom=T Step:=T 0=T Bead:=T pbc="F F F"
C      -45.50170000     -30.13810000     -69.71710000
C      -44.30510000     -30.23530000     -70.46720000
C      -43.26930000     -31.08830000     -70.02860000
C      -43.53420000     -31.85670000     -68.86500000
C      -44.69220000     -31.71280000     -68.10480000
C      -45.68380000     -30.76220000     -68.50780000
H      -46.15310000     -29.42690000     -70.11810000
H      -42.39050000     -31.27890000     -70.64960000
H      -44.84110000     -32.40930000     -67.25710000
H      -46.63510000     -30.61230000     -67.93260000
C      -42.50880000     -32.78930000     -68.25550000
H      -42.89070000     -33.25060000     -67.30230000
H      -41.63170000     -32.13170000     -67.97510000
C      -44.24000000     -29.38290000     -71.67210000
H      -44.22090000     -28.30720000     -71.41270000
H      -43.38230000     -29.53580000     -72.36110000
S      -41.95760000     -34.11180000     -69.48300000
S      -45.76040000     -29.70120000     -72.80400000
C      -43.44780000     -34.47270000     -70.54940000
H      -43.69700000     -33.54990000     -71.05100000
H      -43.07900000     -35.23530000     -71.27300000
C      -45.69220000     -31.58030000     -73.00810000
H      -44.64690000     -31.91150000     -73.00370000
H      -45.88330000     -31.69430000     -74.00920000
C      -46.56170000     -32.37780000     -72.06640000
H      -46.19530000     -32.40430000     -71.05200000
H      -47.52790000     -31.85650000     -72.00390000
C      -44.83400000     -34.98130000     -69.92260000
H      -45.42930000     -34.11150000     -69.55510000
H      -44.57480000     -35.68430000     -69.16450000
C      -45.70280000     -35.63360000     -70.97690000
C      -45.62400000     -37.02100000     -71.08300000
C      -46.53100000     -35.14190000     -72.03530000
H      -45.28160000     -37.61640000     -70.30310000
C      -47.10760000     -36.13180000     -72.84400000
C      -46.86630000     -33.77320000     -72.59910000
C      -47.62940000     -33.88910000     -73.75550000
S      -46.63380000     -37.70810000     -72.35350000
S      -47.84030000     -35.49230000     -74.29160000
H      -47.82630000     -33.08350000     -74.42350000
