40
Properties=species:S:1:pos:R:3 #=T CELL(abcABC):=T 1.889726e+02=T 90.00000=T Traj:=T positionsangstrom=T Step:=T 0=T Bead:=T pbc="F F F"
C      -46.10090000     -36.93440000     -72.97410000
C      -47.26700000     -36.30100000     -72.34930000
C      -47.75450000     -35.13800000     -72.88990000
C      -47.04030000     -34.50420000     -73.88890000
C      -45.96950000     -35.13000000     -74.54020000
C      -45.47750000     -36.38680000     -74.09110000
H      -45.72770000     -37.81230000     -72.52560000
H      -48.66260000     -34.70330000     -72.47820000
H      -45.48050000     -34.52030000     -75.34960000
H      -44.49370000     -36.83580000     -74.45130000
C      -47.50960000     -33.11540000     -74.36210000
H      -48.06750000     -32.63500000     -73.52250000
H      -48.22210000     -33.14670000     -75.20160000
C      -47.92670000     -36.98340000     -71.21420000
H      -49.01850000     -36.73320000     -71.09040000
H      -47.81180000     -38.03190000     -71.23570000
S      -46.17870000     -32.11480000     -74.94480000
S      -47.18440000     -36.42920000     -69.52540000
C      -45.67850000     -31.46430000     -73.26360000
H      -45.53910000     -30.37560000     -73.34430000
H      -46.53180000     -31.75300000     -72.64260000
C      -45.71200000     -35.37920000     -69.93900000
H      -45.26250000     -35.64210000     -70.85380000
H      -45.10950000     -35.57290000     -69.05370000
C      -45.94830000     -33.71920000     -69.95940000
H      -46.12920000     -33.33290000     -70.94080000
H      -46.94290000     -33.70420000     -69.31800000
C      -44.43480000     -32.08140000     -72.69740000
H      -43.54720000     -31.91080000     -73.28800000
H      -44.53750000     -33.18850000     -72.59890000
C      -43.97670000     -31.39750000     -71.36000000
C      -43.12740000     -30.29140000     -71.37410000
C      -44.13290000     -31.90910000     -69.96830000
H      -42.86040000     -29.79530000     -72.30980000
C      -43.21000000     -31.32140000     -69.11740000
C      -44.85620000     -32.91570000     -69.29370000
C      -44.45370000     -33.08060000     -67.95620000
S      -42.37330000     -29.92710000     -69.82950000
S      -43.18440000     -31.96630000     -67.50630000
H      -44.85250000     -33.86760000     -67.39160000
