40
Properties=species:S:1:pos:R:3 #=T CELL(abcABC):=T 1.889726e+02=T 90.00000=T Traj:=T positionsangstrom=T Step:=T 0=T Bead:=T pbc="F F F"
C      -46.33260000     -37.08970000     -73.20580000
C      -47.23890000     -36.39990000     -72.39240000
C      -47.59330000     -35.12240000     -72.78650000
C      -47.01910000     -34.46240000     -73.85460000
C      -46.05880000     -35.10170000     -74.65010000
C      -45.74970000     -36.40210000     -74.32010000
H      -46.02510000     -38.14820000     -73.03220000
H      -48.39670000     -34.59980000     -72.23740000
H      -45.83840000     -34.61980000     -75.61800000
H      -45.10040000     -36.99230000     -74.88340000
C      -47.53420000     -33.15910000     -74.36670000
H      -48.41050000     -32.74720000     -73.84040000
H      -47.83400000     -33.28910000     -75.43090000
C      -47.77650000     -37.01530000     -71.16830000
H      -48.85020000     -37.00160000     -71.09630000
H      -47.60800000     -38.15570000     -71.22650000
S      -46.28260000     -31.78980000     -74.65700000
S      -47.32300000     -36.24990000     -69.59680000
C      -45.73970000     -31.24510000     -73.00820000
H      -45.40100000     -30.25510000     -72.97710000
H      -46.56650000     -31.18700000     -72.25120000
C      -45.68850000     -35.35720000     -69.87860000
H      -45.22630000     -35.75860000     -70.81630000
H      -44.89180000     -35.61930000     -69.10770000
C      -45.92100000     -33.85530000     -69.83320000
H      -46.20960000     -33.53510000     -70.79410000
H      -46.71790000     -33.46580000     -69.26140000
C      -44.60670000     -32.16140000     -72.57220000
H      -43.98300000     -32.16210000     -73.48450000
H      -45.00430000     -33.11100000     -72.32700000
C      -43.79220000     -31.57350000     -71.38760000
C      -42.93430000     -30.47850000     -71.47810000
C      -43.95980000     -32.05410000     -69.99540000
H      -42.62510000     -30.05780000     -72.39370000
C      -43.06890000     -31.38160000     -69.16170000
C      -44.66010000     -33.11170000     -69.40220000
C      -44.42680000     -33.15240000     -68.03930000
S      -42.28070000     -29.99710000     -69.92580000
S      -43.19120000     -31.96410000     -67.50940000
H      -44.79110000     -33.98640000     -67.41690000
