40
Properties=species:S:1:pos:R:3 #=T CELL(abcABC):=T 1.889726e+02=T 90.00000=T Traj:=T positionsangstrom=T Step:=T 0=T Bead:=T pbc="F F F"
C      -45.70800000     -30.12110000     -69.10990000
C      -44.60180000     -30.21370000     -70.02100000
C      -43.52600000     -31.09080000     -69.84820000
C      -43.49520000     -31.85400000     -68.65980000
C      -44.52040000     -31.76040000     -67.67480000
C      -45.66650000     -30.99700000     -67.97520000
H      -46.51620000     -29.48550000     -69.41570000
H      -42.69430000     -31.14350000     -70.52910000
H      -44.40970000     -32.42960000     -66.82440000
H      -46.60010000     -31.06880000     -67.37700000
C      -42.47750000     -33.00540000     -68.42580000
H      -42.99760000     -33.69120000     -67.69120000
H      -41.58540000     -32.67450000     -67.80550000
C      -44.56800000     -29.42130000     -71.35430000
H      -44.60030000     -28.30360000     -71.21410000
H      -43.70870000     -29.66190000     -71.94800000
S      -41.72230000     -33.69400000     -69.98560000
S      -46.02490000     -29.93630000     -72.51930000
C      -43.12310000     -34.13760000     -71.22210000
H      -43.24050000     -33.27170000     -71.92980000
H      -42.78550000     -34.97110000     -71.84210000
C      -45.72290000     -31.69860000     -72.80370000
H      -44.80470000     -31.89250000     -72.22370000
H      -45.54830000     -31.85750000     -73.84910000
C      -46.96160000     -32.45860000     -72.34560000
H      -46.89820000     -32.47020000     -71.27860000
H      -47.86530000     -31.95360000     -72.64150000
C      -44.47200000     -34.44790000     -70.58100000
H      -45.06990000     -33.49270000     -70.39450000
H      -44.32930000     -34.90080000     -69.54470000
C      -45.28270000     -35.36210000     -71.42400000
C      -45.20180000     -36.73920000     -71.25850000
C      -46.29390000     -35.02150000     -72.41260000
H      -44.59510000     -37.24610000     -70.46200000
C      -46.87050000     -36.17690000     -72.96550000
C      -47.09110000     -33.89810000     -72.80020000
C      -48.09650000     -34.10750000     -73.67090000
S      -46.23700000     -37.68480000     -72.34850000
S      -48.20560000     -35.87360000     -74.03130000
H      -48.73950000     -33.45470000     -74.25690000
