40
Properties=species:S:1:pos:R:3 #=T CELL(abcABC):=T 1.889726e+02=T 90.00000=T Traj:=T positionsangstrom=T Step:=T 0=T Bead:=T pbc="F F F"
C      -46.91450000     -30.86300000     -68.77020000
C      -46.67860000     -30.73080000     -70.18110000
C      -47.57630000     -31.39020000     -71.01450000
C      -48.68900000     -32.09130000     -70.56270000
C      -48.81240000     -32.26670000     -69.19180000
C      -47.95180000     -31.60830000     -68.31500000
H      -46.25900000     -30.41640000     -67.95230000
H      -47.41220000     -31.13500000     -72.06790000
H      -49.69410000     -32.80020000     -68.90110000
H      -48.18960000     -31.49240000     -67.27570000
C      -49.53150000     -32.77240000     -71.58610000
H      -50.22290000     -32.03560000     -72.06970000
H      -50.03190000     -33.58970000     -71.06360000
C      -45.65810000     -29.73560000     -70.70030000
H      -46.19060000     -28.73230000     -70.83940000
H      -44.79660000     -29.46150000     -69.99710000
S      -48.58200000     -33.70860000     -72.84090000
S      -44.87620000     -30.11370000     -72.30610000
C      -47.35770000     -34.84240000     -71.98900000
H      -47.77160000     -35.25690000     -71.07550000
H      -47.20910000     -35.63140000     -72.72030000
C      -43.49090000     -31.37880000     -71.97280000
H      -43.72780000     -31.68070000     -70.98870000
H      -42.56490000     -30.79790000     -71.89710000
C      -43.39200000     -32.55670000     -72.89660000
H      -44.41930000     -32.82010000     -73.16300000
H      -42.80590000     -32.17440000     -73.75320000
C      -46.13270000     -34.04080000     -71.63300000
H      -46.26060000     -33.29290000     -70.84740000
H      -45.85090000     -33.69610000     -72.56190000
C      -44.89330000     -34.91160000     -71.13580000
C      -45.05490000     -36.06040000     -70.38490000
C      -43.48210000     -34.78500000     -71.60520000
H      -46.12110000     -36.40530000     -70.11810000
C      -42.74830000     -35.91750000     -71.27100000
C      -42.72230000     -33.78540000     -72.29680000
C      -41.45670000     -34.21610000     -72.68130000
S      -43.59390000     -37.05230000     -70.22030000
S      -41.08790000     -35.74050000     -71.86920000
H      -40.67920000     -33.62230000     -73.05730000
