40
Properties=species:S:1:pos:R:3 #=T CELL(abcABC):=T 1.889726e+02=T 90.00000=T Traj:=T positionsangstrom=T Step:=T 0=T Bead:=T pbc="F F F"
C      -48.92490000     -35.27700000     -69.62990000
C      -48.81320000     -34.68100000     -70.92550000
C      -48.58680000     -33.28690000     -70.99450000
C      -48.51300000     -32.52280000     -69.79730000
C      -48.57750000     -33.18170000     -68.51240000
C      -48.81940000     -34.56420000     -68.42530000
H      -49.05790000     -36.32720000     -69.65560000
H      -48.41090000     -32.80310000     -71.95230000
H      -48.61430000     -32.58010000     -67.63830000
H      -48.89300000     -35.14790000     -67.50130000
C      -48.11320000     -31.08500000     -69.99020000
H      -48.85350000     -30.39050000     -69.55030000
H      -48.10440000     -30.89400000     -71.04480000
C      -48.74810000     -35.55220000     -72.10580000
H      -48.41390000     -36.54560000     -71.79750000
H      -49.71870000     -35.83150000     -72.44830000
S      -46.55470000     -30.59790000     -69.23900000
S      -47.77300000     -34.95760000     -73.53750000
C      -45.43220000     -31.84680000     -70.09470000
H      -44.96810000     -32.27040000     -69.18360000
H      -46.03670000     -32.57390000     -70.57360000
C      -46.12070000     -34.60020000     -72.72750000
H      -45.71880000     -35.59850000     -72.70610000
H      -46.34840000     -34.07990000     -71.72700000
C      -45.22540000     -33.62930000     -73.46900000
H      -45.34900000     -33.83360000     -74.48270000
H      -45.59890000     -32.62590000     -73.16240000
C      -44.30630000     -31.25910000     -70.94430000
H      -44.02780000     -30.36580000     -70.40500000
H      -44.71980000     -30.85240000     -71.90820000
C      -43.09940000     -32.11490000     -71.05260000
C      -41.99640000     -31.94220000     -70.27930000
C      -42.93280000     -33.19340000     -72.03110000
H      -41.75890000     -31.31690000     -69.42510000
C      -41.64960000     -33.63950000     -72.00950000
C      -43.77650000     -33.85480000     -73.07100000
C      -43.04420000     -34.83030000     -73.67570000
S      -40.66120000     -33.03700000     -70.70960000
S      -41.35390000     -34.90490000     -73.19430000
H      -43.49680000     -35.48290000     -74.43900000
