40
Properties=species:S:1:pos:R:3 #=T CELL(abcABC):=T 1.889726e+02=T 90.00000=T Traj:=T positionsangstrom=T Step:=T 0=T Bead:=T pbc="F F F"
C      -45.99070000     -36.31590000     -73.51920000
C      -46.69690000     -35.97030000     -72.32090000
C      -47.56160000     -34.89160000     -72.36150000
C      -47.63620000     -34.00200000     -73.47460000
C      -47.01970000     -34.38880000     -74.64840000
C      -46.35160000     -35.66420000     -74.68250000
H      -45.39290000     -37.21180000     -73.56880000
H      -48.19670000     -34.63760000     -71.51040000
H      -47.13330000     -33.71940000     -75.54820000
H      -45.88340000     -35.90970000     -75.57110000
C      -48.39820000     -32.66550000     -73.41850000
H      -49.04520000     -32.64600000     -72.53500000
H      -49.10030000     -32.59340000     -74.28230000
C      -46.56950000     -36.81790000     -71.12140000
H      -46.93330000     -37.83510000     -71.23040000
H      -45.50400000     -36.85320000     -70.96500000
S      -47.23350000     -31.17130000     -73.78050000
S      -47.35530000     -36.22400000     -69.55550000
C      -45.84760000     -31.41670000     -72.54400000
H      -45.36810000     -30.45200000     -72.61840000
H      -46.31830000     -31.48520000     -71.57320000
C      -46.18980000     -35.03710000     -68.82560000
H      -45.25460000     -35.55410000     -68.53790000
H      -46.67780000     -34.78670000     -67.88510000
C      -45.86080000     -33.85710000     -69.77890000
H      -45.59060000     -34.32440000     -70.70040000
H      -46.63610000     -33.17440000     -69.98570000
C      -44.90950000     -32.57480000     -72.72000000
H      -44.51520000     -32.56520000     -73.77390000
H      -45.35500000     -33.56570000     -72.49460000
C      -43.70940000     -32.38030000     -71.70890000
C      -42.62310000     -31.63820000     -72.19250000
C      -43.80550000     -32.31670000     -70.29940000
H      -42.30440000     -31.43100000     -73.20280000
C      -42.65360000     -31.82520000     -69.73460000
C      -44.69400000     -32.96490000     -69.32630000
C      -44.20990000     -32.87810000     -68.05170000
S      -41.59370000     -31.16350000     -70.88280000
S      -42.65290000     -32.08280000     -67.91290000
H      -44.50750000     -33.65620000     -67.32540000
