40
Properties=species:S:1:pos:R:3 #=T CELL(abcABC):=T 1.889726e+02=T 90.00000=T Traj:=T positionsangstrom=T Step:=T 0=T Bead:=T pbc="F F F"
C      -46.04970000     -36.30110000     -73.36890000
C      -46.76310000     -35.89330000     -72.19510000
C      -47.62260000     -34.74400000     -72.31960000
C      -47.77970000     -33.99880000     -73.46950000
C      -47.04380000     -34.41660000     -74.58500000
C      -46.18790000     -35.51180000     -74.56340000
H      -45.28700000     -37.09980000     -73.29600000
H      -48.06580000     -34.41350000     -71.36990000
H      -47.23780000     -33.90030000     -75.50390000
H      -45.76050000     -35.96770000     -75.49890000
C      -48.57200000     -32.67480000     -73.49900000
H      -48.88560000     -32.55640000     -72.39220000
H      -49.44030000     -32.59520000     -74.18890000
C      -46.62640000     -36.71550000     -71.01060000
H      -47.15230000     -37.61080000     -71.17520000
H      -45.61310000     -37.07850000     -70.87420000
S      -47.25150000     -31.40180000     -73.97900000
S      -47.40540000     -36.18300000     -69.42850000
C      -46.04700000     -31.23390000     -72.52670000
H      -45.59750000     -30.25220000     -72.47960000
H      -46.58030000     -31.42500000     -71.62170000
C      -46.04230000     -35.11610000     -68.82420000
H      -45.07130000     -35.56190000     -68.70980000
H      -46.31460000     -34.75950000     -67.81770000
C      -45.88910000     -33.85890000     -69.73130000
H      -46.02790000     -33.98630000     -70.82180000
H      -46.74100000     -33.17890000     -69.46540000
C      -44.87530000     -32.33590000     -72.75780000
H      -44.55850000     -32.20340000     -73.79500000
H      -45.36020000     -33.32430000     -72.76150000
C      -43.70130000     -32.17230000     -71.78550000
C      -42.62550000     -31.34440000     -72.15650000
C      -43.76040000     -32.42200000     -70.38400000
H      -42.25210000     -31.12010000     -73.16080000
C      -42.59110000     -31.95610000     -69.78050000
C      -44.64460000     -33.12590000     -69.41360000
C      -44.08140000     -33.15510000     -68.15010000
S      -41.50230000     -31.13230000     -70.81430000
S      -42.58780000     -32.21330000     -68.02170000
H      -44.48650000     -33.66710000     -67.29290000
