40
Properties=species:S:1:pos:R:3 #=T CELL(abcABC):=T 1.889726e+02=T 90.00000=T Traj:=T positionsangstrom=T Step:=T 0=T Bead:=T pbc="F F F"
C      -46.15680000     -36.48780000     -73.35370000
C      -46.92410000     -35.98870000     -72.27240000
C      -47.64190000     -34.79240000     -72.40090000
C      -47.72780000     -34.07660000     -73.57190000
C      -47.04700000     -34.58520000     -74.62970000
C      -46.22280000     -35.68020000     -74.51940000
H      -45.60410000     -37.39770000     -73.23200000
H      -48.32100000     -34.55620000     -71.49210000
H      -47.10020000     -34.12830000     -75.59960000
H      -45.68840000     -35.99020000     -75.38760000
C      -48.49740000     -32.68470000     -73.53080000
H      -48.78900000     -32.54360000     -72.50800000
H      -49.43000000     -32.59720000     -74.09410000
C      -46.90420000     -36.91170000     -71.02600000
H      -47.62030000     -37.71870000     -71.30590000
H      -45.86510000     -37.28630000     -70.81390000
S      -47.44200000     -31.26680000     -73.97350000
S      -47.41420000     -36.17770000     -69.39580000
C      -46.16100000     -31.28290000     -72.49790000
H      -45.95800000     -30.26110000     -72.32660000
H      -46.76960000     -31.60180000     -71.57650000
C      -46.06680000     -35.01030000     -68.85720000
H      -45.14290000     -35.66350000     -68.85610000
H      -46.31040000     -34.65820000     -67.80380000
C      -45.78430000     -33.83140000     -69.76820000
H      -45.42400000     -34.22980000     -70.67250000
H      -46.58770000     -33.20690000     -70.00820000
C      -44.87510000     -32.23000000     -72.79270000
H      -44.34840000     -32.01830000     -73.71160000
H      -45.23520000     -33.27970000     -72.71340000
C      -43.79540000     -31.94940000     -71.75220000
C      -42.65000000     -31.24560000     -72.10000000
C      -43.74320000     -32.35140000     -70.28640000
H      -42.34320000     -30.93060000     -73.07970000
C      -42.50670000     -31.90340000     -69.74600000
C      -44.58990000     -33.01980000     -69.33800000
C      -43.97150000     -33.01830000     -68.10410000
S      -41.40020000     -31.12010000     -70.79570000
S      -42.34110000     -32.31450000     -68.06580000
H      -44.33200000     -33.39250000     -67.13680000
