40
Properties=species:S:1:pos:R:3 #=T CELL(abcABC):=T 1.889726e+02=T 90.00000=T Traj:=T positionsangstrom=T Step:=T 0=T Bead:=T pbc="F F F"
C      -46.45290000     -36.69200000     -73.40040000
C      -47.10540000     -36.17390000     -72.27440000
C      -47.75810000     -34.93160000     -72.36440000
C      -47.75550000     -34.14400000     -73.48830000
C      -46.91140000     -34.55960000     -74.53550000
C      -46.34800000     -35.83160000     -74.51540000
H      -46.06920000     -37.72900000     -73.34140000
H      -48.23960000     -34.63860000     -71.41480000
H      -46.48050000     -33.91820000     -75.31980000
H      -45.63390000     -36.10990000     -75.27020000
C      -48.50690000     -32.82160000     -73.55950000
H      -49.35360000     -32.64770000     -72.93360000
H      -48.92720000     -32.89020000     -74.59680000
C      -47.04150000     -36.94300000     -70.92650000
H      -47.57580000     -37.92600000     -70.97110000
H      -46.04170000     -37.25910000     -70.64380000
S      -47.39580000     -31.28680000     -73.68020000
S      -47.52970000     -35.86410000     -69.48160000
C      -46.27180000     -31.19090000     -72.32640000
H      -45.95450000     -30.14420000     -72.26210000
H      -46.66460000     -31.45390000     -71.31470000
C      -45.92380000     -35.04850000     -69.07140000
H      -45.11070000     -35.77010000     -69.25530000
H      -45.96240000     -34.88900000     -68.02070000
C      -45.75240000     -33.69990000     -69.73900000
H      -45.75150000     -33.75860000     -70.82750000
H      -46.62420000     -33.07840000     -69.31520000
C      -44.98610000     -32.11560000     -72.58400000
H      -44.76700000     -31.95400000     -73.63680000
H      -45.27260000     -33.17820000     -72.52000000
C      -43.78900000     -31.84660000     -71.71730000
C      -42.66310000     -31.23050000     -72.22400000
C      -43.61110000     -32.32960000     -70.30960000
H      -42.63870000     -30.51400000     -73.01510000
C      -42.39510000     -31.79430000     -69.77760000
C      -44.42690000     -33.06730000     -69.43210000
C      -43.75510000     -33.34880000     -68.27410000
S      -41.35160000     -31.04250000     -70.96010000
S      -42.23950000     -32.41080000     -68.12910000
H      -44.13150000     -33.77250000     -67.34750000
