40
Properties=species:S:1:pos:R:3 #=T CELL(abcABC):=T 1.889726e+02=T 90.00000=T Traj:=T positionsangstrom=T Step:=T 0=T Bead:=T pbc="F F F"
C      -46.44110000     -36.64670000     -73.32060000
C      -47.13160000     -36.09320000     -72.20420000
C      -47.78800000     -34.82150000     -72.35000000
C      -47.76090000     -34.09320000     -73.52640000
C      -47.05990000     -34.67390000     -74.62960000
C      -46.44780000     -35.90140000     -74.51220000
H      -45.88400000     -37.62210000     -73.22300000
H      -48.31930000     -34.47530000     -71.50480000
H      -47.20830000     -34.30420000     -75.65960000
H      -46.06220000     -36.38240000     -75.43750000
C      -48.44410000     -32.77990000     -73.52020000
H      -49.04020000     -32.67280000     -72.56620000
H      -49.13970000     -32.83550000     -74.39210000
C      -47.38320000     -36.86470000     -70.88610000
H      -48.42010000     -37.18470000     -71.00080000
H      -46.72580000     -37.75720000     -70.76020000
S      -47.48960000     -31.19990000     -73.61750000
S      -47.63310000     -35.85030000     -69.37040000
C      -46.20600000     -31.41210000     -72.24630000
H      -46.01850000     -30.39900000     -71.93850000
H      -46.61510000     -31.92890000     -71.41620000
C      -45.90900000     -35.20600000     -69.05610000
H      -45.10060000     -35.81280000     -69.51610000
H      -45.74220000     -35.32840000     -67.97240000
C      -45.67100000     -33.76250000     -69.57680000
H      -45.81460000     -33.76660000     -70.66100000
H      -46.37070000     -33.02860000     -69.19090000
C      -44.94400000     -32.05570000     -72.70330000
H      -44.52870000     -31.78170000     -73.67910000
H      -45.12660000     -33.09370000     -72.84290000
C      -43.80370000     -31.79210000     -71.70810000
C      -42.73700000     -31.04170000     -72.14760000
C      -43.52110000     -32.40480000     -70.37000000
H      -42.82760000     -30.40570000     -73.02270000
C      -42.28210000     -31.94970000     -69.89770000
C      -44.27420000     -33.18320000     -69.39970000
C      -43.53100000     -33.32250000     -68.25410000
S      -41.47260000     -30.82110000     -71.01060000
S      -41.91630000     -32.61170000     -68.32630000
H      -43.82700000     -33.89940000     -67.38980000
