40
Properties=species:S:1:pos:R:3 #=T CELL(abcABC):=T 1.889726e+02=T 90.00000=T Traj:=T positionsangstrom=T Step:=T 0=T Bead:=T pbc="F F F"
C      -46.54230000     -36.32560000     -72.98660000
C      -47.36580000     -35.90440000     -71.93010000
C      -48.11960000     -34.72790000     -72.15800000
C      -47.95640000     -34.02810000     -73.36690000
C      -47.15600000     -34.50410000     -74.44900000
C      -46.46200000     -35.70310000     -74.25960000
H      -45.93850000     -37.18620000     -72.82420000
H      -48.64040000     -34.14110000     -71.31890000
H      -47.05390000     -33.91320000     -75.36520000
H      -45.90710000     -36.09250000     -75.03880000
C      -48.62810000     -32.73610000     -73.54340000
H      -49.31080000     -32.52350000     -72.67630000
H      -49.37260000     -32.66390000     -74.40120000
C      -47.53490000     -36.70520000     -70.69300000
H      -48.42720000     -37.36050000     -70.65490000
H      -46.84750000     -37.55240000     -70.61210000
S      -47.48580000     -31.32370000     -73.84270000
S      -47.48040000     -35.81420000     -69.06050000
C      -46.38420000     -31.40230000     -72.33780000
H      -46.24470000     -30.45130000     -71.88790000
H      -46.84780000     -32.02840000     -71.63250000
C      -45.75180000     -35.32580000     -68.86380000
H      -45.06250000     -36.18020000     -68.80850000
H      -45.72250000     -34.91190000     -67.83250000
C      -45.29580000     -34.28460000     -69.93860000
H      -45.21940000     -34.64830000     -70.97660000
H      -46.12170000     -33.56860000     -69.86800000
C      -45.01450000     -31.96410000     -72.66740000
H      -44.58170000     -31.62750000     -73.57320000
H      -45.00450000     -33.06080000     -72.75750000
C      -43.91700000     -31.69910000     -71.65290000
C      -43.08340000     -30.64340000     -71.98820000
C      -43.50520000     -32.41070000     -70.47820000
H      -43.09230000     -29.97290000     -72.87890000
C      -42.28720000     -31.98600000     -70.05240000
C      -43.95600000     -33.62080000     -69.69480000
C      -43.03200000     -33.88250000     -68.69020000
S      -41.68000000     -30.60030000     -70.94430000
S      -41.62440000     -32.80590000     -68.72070000
H      -43.21770000     -34.64980000     -67.96930000
