40
Properties=species:S:1:pos:R:3 #=T CELL(abcABC):=T 1.889726e+02=T 90.00000=T Traj:=T positionsangstrom=T Step:=T 0=T Bead:=T pbc="F F F"
C      -47.15700000     -36.48920000     -72.46250000
C      -47.76340000     -35.84460000     -71.40350000
C      -48.31270000     -34.57460000     -71.62910000
C      -48.35640000     -34.04070000     -72.93610000
C      -47.66220000     -34.74060000     -74.00680000
C      -47.09520000     -35.98380000     -73.78130000
H      -46.64750000     -37.46620000     -72.32020000
H      -48.80070000     -34.03450000     -70.72600000
H      -47.62490000     -34.31350000     -75.01820000
H      -46.54760000     -36.40800000     -74.63130000
C      -48.96240000     -32.74540000     -73.30310000
H      -49.56360000     -32.39420000     -72.49490000
H      -49.63080000     -32.92110000     -74.12290000
C      -47.78250000     -36.59130000     -70.06930000
H      -48.83840000     -36.91030000     -69.78880000
H      -47.27680000     -37.58760000     -70.27100000
S      -47.75850000     -31.43260000     -73.78790000
S      -46.89600000     -35.85970000     -68.63750000
C      -46.64930000     -31.41200000     -72.27410000
H      -46.51930000     -30.37770000     -72.05770000
H      -47.16500000     -31.75240000     -71.32680000
C      -45.17260000     -35.55530000     -69.28370000
H      -44.94650000     -36.39490000     -69.88780000
H      -44.65000000     -35.56650000     -68.35710000
C      -44.95440000     -34.20040000     -70.09500000
H      -45.12120000     -34.39330000     -71.13550000
H      -45.78990000     -33.52600000     -69.78810000
C      -45.24330000     -32.03690000     -72.51660000
H      -45.05170000     -31.96520000     -73.58860000
H      -45.42730000     -33.11990000     -72.36680000
C      -44.03240000     -31.54850000     -71.82540000
C      -43.28260000     -30.48960000     -72.21840000
C      -43.32840000     -32.37210000     -70.77830000
H      -43.36700000     -29.81840000     -73.13800000
C      -42.04130000     -31.89810000     -70.54710000
C      -43.54990000     -33.58580000     -70.00940000
C      -42.47590000     -33.90160000     -69.23050000
S      -41.70210000     -30.42910000     -71.39790000
S      -41.13960000     -32.72890000     -69.31070000
H      -42.48090000     -34.70380000     -68.51030000
