40
Properties=species:S:1:pos:R:3 #=T CELL(abcABC):=T 1.889726e+02=T 90.00000=T Traj:=T positionsangstrom=T Step:=T 0=T Bead:=T pbc="F F F"
C      -47.31990000     -36.77630000     -72.40060000
C      -47.76670000     -36.08920000     -71.24750000
C      -48.27490000     -34.78010000     -71.37300000
C      -48.29500000     -34.14000000     -72.63870000
C      -47.83110000     -34.89380000     -73.73490000
C      -47.29650000     -36.19500000     -73.62090000
H      -46.99200000     -37.82450000     -72.41440000
H      -48.71760000     -34.27780000     -70.58470000
H      -47.79320000     -34.43760000     -74.66610000
H      -46.94490000     -36.66730000     -74.51820000
C      -48.90380000     -32.74620000     -72.85880000
H      -49.25210000     -32.34880000     -71.92710000
H      -49.65090000     -32.75370000     -73.66240000
C      -47.50660000     -36.84220000     -70.00610000
H      -48.41540000     -37.15300000     -69.67310000
H      -46.88430000     -37.74050000     -70.15340000
S      -47.79150000     -31.44810000     -73.59870000
S      -46.80910000     -35.81780000     -68.67530000
C      -46.40170000     -31.20800000     -72.44810000
H      -46.11360000     -30.13830000     -72.56960000
H      -46.78840000     -31.23410000     -71.46280000
C      -45.12850000     -35.42670000     -69.36850000
H      -44.82310000     -36.06840000     -70.19990000
H      -44.43170000     -35.55500000     -68.55710000
C      -45.10230000     -33.94160000     -69.90780000
H      -45.63550000     -33.79360000     -70.83910000
H      -45.45030000     -33.35810000     -69.07200000
C      -45.18080000     -32.06500000     -72.81640000
H      -45.06880000     -32.01270000     -73.91410000
H      -45.40900000     -33.08800000     -72.62280000
C      -43.92490000     -31.60620000     -72.13200000
C      -43.15930000     -30.54840000     -72.59850000
C      -43.29370000     -32.27240000     -71.00570000
H      -43.33380000     -29.80260000     -73.39720000
C      -42.07400000     -31.76040000     -70.59630000
C      -43.65380000     -33.49770000     -70.20190000
C      -42.64320000     -33.81820000     -69.36280000
S      -41.69230000     -30.28520000     -71.54680000
S      -41.26770000     -32.70040000     -69.35280000
H      -42.46590000     -34.60990000     -68.65500000
