40
Properties=species:S:1:pos:R:3 #=T CELL(abcABC):=T 1.889726e+02=T 90.00000=T Traj:=T positionsangstrom=T Step:=T 0=T Bead:=T pbc="F F F"
C      -47.36890000     -36.56870000     -72.65180000
C      -47.39160000     -36.05750000     -71.32650000
C      -47.80170000     -34.70070000     -71.11670000
C      -48.22090000     -33.92830000     -72.20220000
C      -48.29780000     -34.47130000     -73.47760000
C      -47.87870000     -35.79040000     -73.70270000
H      -47.20210000     -37.62830000     -72.85840000
H      -47.91830000     -34.36010000     -70.06870000
H      -48.74800000     -33.89850000     -74.39940000
H      -48.08200000     -36.31180000     -74.69810000
C      -48.87810000     -32.60200000     -72.01570000
H      -48.77560000     -32.21180000     -70.98400000
H      -49.87710000     -32.68180000     -72.38610000
C      -47.10200000     -36.96550000     -70.19830000
H      -47.90780000     -37.52150000     -69.74640000
H      -46.40540000     -37.66680000     -70.49810000
S      -48.08620000     -31.33860000     -73.03450000
S      -46.52310000     -36.11430000     -68.64430000
C      -46.45980000     -31.40500000     -72.20480000
H      -46.07210000     -30.41700000     -72.10380000
H      -46.60200000     -31.60220000     -71.15440000
C      -44.84370000     -35.33980000     -68.99520000
H      -44.09950000     -36.05370000     -69.24730000
H      -44.54220000     -34.93620000     -68.06350000
C      -44.85730000     -34.20750000     -70.05780000
H      -45.02700000     -34.66970000     -71.00090000
H      -45.65290000     -33.55390000     -69.80870000
C      -45.40240000     -32.30730000     -72.89890000
H      -45.42660000     -31.91580000     -73.87500000
H      -45.69910000     -33.34790000     -72.84750000
C      -44.07250000     -31.96710000     -72.38360000
C      -43.33730000     -30.96870000     -72.94690000
C      -43.37280000     -32.42520000     -71.21030000
H      -43.63500000     -30.47450000     -73.93010000
C      -42.10040000     -31.85710000     -71.08450000
C      -43.60720000     -33.44390000     -70.08160000
C      -42.52890000     -33.43490000     -69.22410000
S      -41.79500000     -30.59260000     -72.20490000
S      -41.24640000     -32.25500000     -69.58320000
H      -42.44000000     -34.03860000     -68.31630000
