40
Properties=species:S:1:pos:R:3 #=T CELL(abcABC):=T 1.889726e+02=T 90.00000=T Traj:=T positionsangstrom=T Step:=T 0=T Bead:=T pbc="F F F"
C      -47.19000000     -36.51630000     -72.69360000
C      -47.40230000     -36.10810000     -71.39060000
C      -48.10400000     -34.95330000     -71.14050000
C      -48.45700000     -34.11290000     -72.16890000
C      -48.43750000     -34.58510000     -73.49100000
C      -47.81130000     -35.79560000     -73.75080000
H      -46.34750000     -37.16410000     -73.01780000
H      -48.28090000     -34.64700000     -70.08960000
H      -48.74930000     -33.93220000     -74.42530000
H      -47.70630000     -36.31080000     -74.74740000
C      -49.04080000     -32.71840000     -71.92050000
H      -49.16590000     -32.46360000     -70.85030000
H      -50.09200000     -32.75120000     -72.25520000
C      -46.64910000     -36.88510000     -70.26250000
H      -47.18590000     -37.90890000     -70.11610000
H      -45.59630000     -37.05740000     -70.69420000
S      -48.15480000     -31.34800000     -72.82830000
S      -46.45630000     -36.07850000     -68.59410000
C      -46.44340000     -31.19420000     -72.11060000
H      -46.08130000     -30.17360000     -72.47850000
H      -46.47680000     -31.21250000     -71.00440000
C      -44.79000000     -35.23770000     -68.85130000
H      -44.03440000     -36.05890000     -68.99930000
H      -44.49720000     -34.70870000     -67.93310000
C      -44.82460000     -34.26330000     -70.00190000
H      -45.05070000     -34.76010000     -70.99740000
H      -45.67440000     -33.54600000     -69.84760000
C      -45.52390000     -32.31620000     -72.53280000
H      -45.60880000     -32.59680000     -73.63380000
H      -45.74390000     -33.28720000     -72.03120000
C      -44.06240000     -31.95480000     -72.35460000
C      -43.45560000     -30.96360000     -73.04900000
C      -43.25100000     -32.45230000     -71.29920000
H      -43.73420000     -30.36900000     -73.93380000
C      -42.07330000     -31.79300000     -71.18570000
C      -43.57160000     -33.36640000     -70.22510000
C      -42.60200000     -33.30640000     -69.25770000
S      -41.82580000     -30.58400000     -72.41040000
S      -41.20570000     -32.27100000     -69.68360000
H      -42.34050000     -33.97010000     -68.45970000
