40
Properties=species:S:1:pos:R:3 #=T CELL(abcABC):=T 1.889726e+02=T 90.00000=T Traj:=T positionsangstrom=T Step:=T 0=T Bead:=T pbc="F F F"
C      -46.99180000     -36.49280000     -72.74920000
C      -47.18510000     -36.05800000     -71.39920000
C      -47.77250000     -34.82620000     -71.16060000
C      -48.39540000     -34.10070000     -72.13710000
C      -48.31530000     -34.57240000     -73.47520000
C      -47.61940000     -35.75680000     -73.76600000
H      -46.72170000     -37.54760000     -72.99860000
H      -47.80000000     -34.43710000     -70.15260000
H      -48.80820000     -33.98190000     -74.29670000
H      -47.52220000     -36.01990000     -74.79950000
C      -49.15190000     -32.87880000     -71.78130000
H      -49.09260000     -32.69500000     -70.71950000
H      -50.17380000     -33.02530000     -72.11540000
C      -46.56570000     -36.87720000     -70.30500000
H      -47.11770000     -37.73670000     -70.14130000
H      -45.60310000     -37.25430000     -70.44070000
S      -48.49850000     -31.40820000     -72.61010000
S      -46.41360000     -35.99460000     -68.68170000
C      -46.68900000     -31.30750000     -72.07010000
H      -46.43220000     -30.28630000     -72.17060000
H      -46.63550000     -31.57130000     -71.04630000
C      -44.82420000     -35.04120000     -68.75510000
H      -44.02190000     -35.75080000     -68.79380000
H      -44.78620000     -34.53690000     -67.80810000
C      -44.79000000     -34.20100000     -69.98270000
H      -45.00630000     -34.82620000     -70.83250000
H      -45.66040000     -33.59290000     -70.05740000
C      -45.56630000     -32.20120000     -72.80050000
H      -45.55900000     -32.03520000     -73.88800000
H      -45.96730000     -33.19280000     -72.72880000
C      -44.18500000     -31.90840000     -72.34220000
C      -43.41690000     -31.07980000     -73.11640000
C      -43.40860000     -32.29020000     -71.10740000
H      -43.71780000     -30.57020000     -73.98250000
C      -42.16360000     -31.60780000     -71.04110000
C      -43.55800000     -33.30230000     -70.12610000
C      -42.43360000     -33.42940000     -69.33380000
S      -41.85800000     -30.77660000     -72.44470000
S      -41.10090000     -32.31680000     -69.87120000
H      -42.30680000     -34.07180000     -68.46540000
