40
Properties=species:S:1:pos:R:3 #=T CELL(abcABC):=T 1.889726e+02=T 90.00000=T Traj:=T positionsangstrom=T Step:=T 0=T Bead:=T pbc="F F F"
C      -42.51060000     -31.73020000     -75.20210000
C      -43.18390000     -32.69400000     -74.46020000
C      -44.55220000     -32.48020000     -74.19830000
C      -45.12990000     -31.22450000     -74.41590000
C      -44.43740000     -30.22660000     -75.09660000
C      -43.11760000     -30.50680000     -75.51120000
H      -41.45370000     -31.87680000     -75.56270000
H      -45.08050000     -33.32520000     -73.75680000
H      -44.89350000     -29.26900000     -75.18680000
H      -42.45580000     -29.74120000     -75.92940000
C      -46.48810000     -30.72650000     -73.88010000
H      -46.78650000     -30.05160000     -74.60010000
H      -46.21240000     -30.16110000     -72.92220000
C      -42.37800000     -33.91320000     -74.06790000
H      -42.80370000     -34.86240000     -74.43760000
H      -41.34190000     -33.81600000     -74.44600000
S      -47.76630000     -32.10370000     -73.56050000
S      -41.91030000     -34.01640000     -72.20650000
C      -47.47200000     -32.50510000     -71.74970000
H      -46.52550000     -31.98450000     -71.51690000
H      -48.30450000     -32.11170000     -71.15430000
C      -43.40380000     -34.35650000     -71.17520000
H      -43.06930000     -35.26790000     -70.59500000
H      -44.23410000     -34.62680000     -71.83760000
C      -43.92160000     -33.28070000     -70.22570000
H      -43.00360000     -32.92730000     -69.69690000
H      -44.47230000     -32.49290000     -70.72060000
C      -47.24220000     -34.04410000     -71.49570000
H      -46.34470000     -34.35580000     -72.11580000
H      -48.09750000     -34.51670000     -72.00440000
C      -47.18470000     -34.51220000     -70.10590000
C      -48.24670000     -35.20520000     -69.59430000
C      -46.13700000     -34.42140000     -69.11930000
H      -49.10560000     -35.42670000     -70.16200000
C      -46.55330000     -34.80920000     -67.86020000
C      -44.78710000     -33.88020000     -69.06360000
C      -44.23520000     -33.98150000     -67.81090000
S      -48.13860000     -35.50920000     -67.80910000
S      -45.36960000     -34.61380000     -66.60030000
H      -43.30180000     -33.56830000     -67.58360000
