40
Properties=species:S:1:pos:R:3 #=T CELL(abcABC):=T 1.889726e+02=T 90.00000=T Traj:=T positionsangstrom=T Step:=T 0=T Bead:=T pbc="F F F"
C      -42.32440000     -31.50530000     -74.67770000
C      -43.06740000     -32.60440000     -74.18730000
C      -44.42440000     -32.37740000     -73.84810000
C      -45.06290000     -31.11920000     -74.06050000
C      -44.29770000     -30.16620000     -74.71670000
C      -42.91810000     -30.27330000     -74.96080000
H      -41.30240000     -31.70950000     -74.95470000
H      -45.15770000     -33.14850000     -73.63120000
H      -44.75910000     -29.16900000     -74.95020000
H      -42.38820000     -29.50140000     -75.49920000
C      -46.52760000     -30.87610000     -73.74160000
H      -47.06950000     -30.13460000     -74.37030000
H      -46.61560000     -30.36650000     -72.69600000
C      -42.41730000     -33.96960000     -73.82460000
H      -43.09370000     -34.84410000     -73.97390000
H      -41.47570000     -34.11110000     -74.31740000
S      -47.62830000     -32.32690000     -73.81400000
S      -41.80470000     -33.90750000     -72.05490000
C      -47.81040000     -32.78840000     -72.03160000
H      -47.11020000     -32.20540000     -71.49870000
H      -48.78680000     -32.40500000     -71.73050000
C      -43.17740000     -34.52790000     -70.97770000
H      -42.80240000     -34.94370000     -70.07600000
H      -43.75350000     -35.21920000     -71.52210000
C      -44.10430000     -33.31730000     -70.53230000
H      -43.47370000     -32.45140000     -70.19310000
H      -44.66500000     -33.08100000     -71.45610000
C      -47.48200000     -34.25760000     -71.72150000
H      -46.55440000     -34.51700000     -72.15980000
H      -48.13620000     -34.92240000     -72.26660000
C      -47.47080000     -34.58150000     -70.23280000
C      -48.45810000     -35.28400000     -69.56220000
C      -46.33280000     -34.29770000     -69.35580000
H      -49.39680000     -35.69610000     -70.06850000
C      -46.58000000     -34.72030000     -68.02520000
C      -44.96870000     -33.70560000     -69.37210000
C      -44.38030000     -33.70080000     -68.14240000
S      -48.08620000     -35.57440000     -67.86710000
S      -45.27940000     -34.55430000     -66.86800000
H      -43.41870000     -33.20390000     -67.91540000
