40
Properties=species:S:1:pos:R:3 #=T CELL(abcABC):=T 1.889726e+02=T 90.00000=T Traj:=T positionsangstrom=T Step:=T 0=T Bead:=T pbc="F F F"
C      -42.38400000     -31.46590000     -74.45270000
C      -43.11970000     -32.55480000     -74.06320000
C      -44.52420000     -32.34910000     -73.93840000
C      -45.16090000     -31.09080000     -74.17030000
C      -44.34620000     -30.04080000     -74.60480000
C      -42.97610000     -30.24710000     -74.68230000
H      -41.27920000     -31.56490000     -74.52340000
H      -45.18020000     -33.12010000     -73.49370000
H      -44.85560000     -29.11720000     -74.92690000
H      -42.34070000     -29.36530000     -74.98960000
C      -46.63560000     -30.87010000     -73.87600000
H      -47.03020000     -30.23630000     -74.59010000
H      -46.74220000     -30.26610000     -72.96560000
C      -42.38430000     -33.80430000     -73.79370000
H      -43.04560000     -34.64590000     -73.93280000
H      -41.57900000     -33.96380000     -74.53300000
S      -47.75390000     -32.40000000     -73.80510000
S      -41.60410000     -34.00270000     -72.04680000
C      -47.82870000     -32.79450000     -72.01440000
H      -47.28500000     -31.98300000     -71.45240000
H      -48.86700000     -32.89680000     -71.68410000
C      -43.15330000     -34.56950000     -71.12170000
H      -42.67290000     -35.08230000     -70.25770000
H      -43.73450000     -35.42720000     -71.61500000
C      -44.07900000     -33.52540000     -70.61630000
H      -43.52460000     -32.63440000     -70.38580000
H      -44.78210000     -33.25520000     -71.35300000
C      -47.23480000     -34.15670000     -71.77770000
H      -46.25970000     -34.21800000     -72.25960000
H      -47.84010000     -34.92320000     -72.27420000
C      -47.29200000     -34.54830000     -70.26850000
C      -48.37760000     -35.23950000     -69.73350000
C      -46.20290000     -34.40290000     -69.32660000
H      -49.32470000     -35.44170000     -70.29290000
C      -46.59890000     -34.82120000     -68.03260000
C      -44.87000000     -33.87190000     -69.28010000
C      -44.27450000     -33.87830000     -68.03820000
S      -48.17740000     -35.57880000     -68.03620000
S      -45.40930000     -34.32430000     -66.78100000
H      -43.28140000     -33.42430000     -67.82380000
