40
Properties=species:S:1:pos:R:3 #=T CELL(abcABC):=T 1.889726e+02=T 90.00000=T Traj:=T positionsangstrom=T Step:=T 0=T Bead:=T pbc="F F F"
C      -42.48570000     -31.33010000     -74.02300000
C      -43.25670000     -32.46160000     -73.87070000
C      -44.63410000     -32.36680000     -73.84730000
C      -45.30130000     -31.13360000     -74.01580000
C      -44.50860000     -29.99580000     -74.25000000
C      -43.08690000     -30.11250000     -74.22350000
H      -41.43040000     -31.48110000     -74.24040000
H      -45.17300000     -33.29930000     -73.77190000
H      -44.92160000     -28.97790000     -74.31010000
H      -42.57640000     -29.21410000     -74.52020000
C      -46.79550000     -31.04130000     -74.21340000
H      -47.12440000     -30.65740000     -75.26580000
H      -47.30320000     -30.30960000     -73.60460000
C      -42.66700000     -33.81840000     -73.73120000
H      -43.41670000     -34.64660000     -73.73600000
H      -41.91500000     -34.01920000     -74.52080000
S      -47.64770000     -32.65460000     -73.91610000
S      -41.80730000     -34.09100000     -72.17700000
C      -47.24240000     -33.00980000     -72.14860000
H      -46.48270000     -32.30790000     -71.82610000
H      -48.10160000     -32.85880000     -71.48680000
C      -43.14320000     -34.55800000     -71.06010000
H      -42.54900000     -35.06830000     -70.23550000
H      -43.79970000     -35.32690000     -71.51740000
C      -43.91390000     -33.35020000     -70.43680000
H      -43.18910000     -32.64800000     -70.06160000
H      -44.59720000     -32.86020000     -71.15910000
C      -46.79710000     -34.46740000     -71.89530000
H      -45.77990000     -34.69980000     -72.19550000
H      -47.40000000     -35.11460000     -72.48210000
C      -46.99300000     -34.74560000     -70.42180000
C      -48.22520000     -35.14570000     -69.92780000
C      -46.11600000     -34.28920000     -69.36300000
H      -48.91210000     -35.72600000     -70.46060000
C      -46.63880000     -34.65920000     -68.12030000
C      -44.78190000     -33.71320000     -69.26780000
C      -44.32920000     -33.66000000     -67.96700000
S      -48.20900000     -35.38680000     -68.16580000
S      -45.52680000     -34.27980000     -66.79980000
H      -43.39520000     -33.40310000     -67.56800000
