40
Properties=species:S:1:pos:R:3 #=T CELL(abcABC):=T 1.889726e+02=T 90.00000=T Traj:=T positionsangstrom=T Step:=T 0=T Bead:=T pbc="F F F"
C      -42.79600000     -30.88360000     -73.32470000
C      -43.23930000     -32.16930000     -73.72110000
C      -44.59540000     -32.40370000     -74.07410000
C      -45.49350000     -31.38300000     -73.97280000
C      -45.07150000     -30.19230000     -73.41830000
C      -43.74730000     -29.94670000     -73.11200000
H      -41.77130000     -30.69390000     -72.97620000
H      -44.95180000     -33.33090000     -74.35310000
H      -45.87960000     -29.49350000     -73.22500000
H      -43.44740000     -28.93270000     -72.70160000
C      -46.93020000     -31.36920000     -74.42160000
H      -47.05980000     -31.09840000     -75.50040000
H      -47.42830000     -30.55040000     -74.03530000
C      -42.24950000     -33.30760000     -73.84010000
H      -42.64970000     -34.23400000     -74.35910000
H      -41.33570000     -33.02800000     -74.43730000
S      -47.78600000     -32.97200000     -74.09480000
S      -41.63450000     -33.87500000     -72.15180000
C      -47.44340000     -33.14530000     -72.28160000
H      -46.69520000     -32.36720000     -71.88700000
H      -48.40650000     -33.01490000     -71.76450000
C      -43.33690000     -34.35430000     -71.40460000
H      -43.15010000     -35.11710000     -70.63150000
H      -43.89070000     -34.82020000     -72.16340000
C      -44.02240000     -33.14150000     -70.76360000
H      -43.25840000     -32.45370000     -70.59210000
H      -44.66750000     -32.73960000     -71.52170000
C      -46.93350000     -34.57370000     -72.03460000
H      -45.92590000     -34.83320000     -72.45620000
H      -47.57100000     -35.27560000     -72.45550000
C      -46.86720000     -34.81900000     -70.46510000
C      -47.96250000     -35.46660000     -69.93220000
C      -45.90920000     -34.40420000     -69.45610000
H      -48.78450000     -35.82340000     -70.54020000
C      -46.43850000     -34.66030000     -68.17080000
C      -44.78320000     -33.61980000     -69.46770000
C      -44.27390000     -33.49070000     -68.15570000
S      -47.96170000     -35.57220000     -68.17270000
S      -45.30070000     -34.24770000     -66.91150000
H      -43.32630000     -32.99680000     -67.84480000
