40
Properties=species:S:1:pos:R:3 #=T CELL(abcABC):=T 1.889726e+02=T 90.00000=T Traj:=T positionsangstrom=T Step:=T 0=T Bead:=T pbc="F F F"
C      -43.29830000     -30.68250000     -72.48680000
C      -43.31940000     -31.73040000     -73.46750000
C      -44.46580000     -31.96630000     -74.18460000
C      -45.65600000     -31.27850000     -73.86870000
C      -45.66640000     -30.35540000     -72.85170000
C      -44.50180000     -30.14090000     -72.12650000
H      -42.47640000     -30.70880000     -71.80820000
H      -44.45800000     -32.70280000     -74.94840000
H      -46.56270000     -29.80310000     -72.49370000
H      -44.49520000     -29.42610000     -71.25750000
C      -46.96780000     -31.59120000     -74.62870000
H      -46.74290000     -31.30210000     -75.66610000
H      -47.80810000     -31.02380000     -74.17990000
C      -42.15860000     -32.59830000     -73.80670000
H      -42.26750000     -33.35940000     -74.62410000
H      -41.28140000     -32.02960000     -74.02700000
S      -47.43610000     -33.36540000     -74.35950000
S      -41.59180000     -33.62980000     -72.32840000
C      -47.34820000     -33.50580000     -72.41540000
H      -46.67130000     -32.80070000     -71.98510000
H      -48.33280000     -33.33770000     -72.00780000
C      -43.09790000     -34.50410000     -71.56240000
H      -42.66950000     -35.19460000     -70.90640000
H      -43.58270000     -35.05770000     -72.35720000
C      -43.95780000     -33.31780000     -70.82880000
H      -43.25300000     -32.52420000     -70.46940000
H      -44.56490000     -32.98270000     -71.71810000
C      -46.81310000     -34.87250000     -71.99830000
H      -45.69950000     -35.02270000     -72.34080000
H      -47.37660000     -35.60640000     -72.51320000
C      -46.94570000     -35.01110000     -70.50700000
C      -48.01140000     -35.58610000     -69.96720000
C      -45.93120000     -34.49020000     -69.57080000
H      -48.85410000     -35.97260000     -70.49020000
C      -46.39590000     -34.63780000     -68.24850000
C      -44.68320000     -33.74750000     -69.64580000
C      -44.23840000     -33.43040000     -68.38810000
S      -47.82710000     -35.64850000     -68.17520000
S      -45.31230000     -33.94980000     -67.06370000
H      -43.25890000     -32.90300000     -68.12330000
