40
Properties=species:S:1:pos:R:3 #=T CELL(abcABC):=T 1.889726e+02=T 90.00000=T Traj:=T positionsangstrom=T Step:=T 0=T Bead:=T pbc="F F F"
C      -45.36050000     -35.45720000     -72.73790000
C      -46.62520000     -34.84950000     -72.74170000
C      -46.74400000     -33.63580000     -73.45820000
C      -45.58620000     -33.02630000     -73.91380000
C      -44.39150000     -33.72740000     -73.96470000
C      -44.25060000     -34.93100000     -73.31710000
H      -45.21220000     -36.37370000     -72.10650000
H      -47.68650000     -33.14670000     -73.55220000
H      -43.52610000     -33.28780000     -74.39600000
H      -43.36280000     -35.48290000     -73.38840000
C      -45.51570000     -31.69790000     -74.60350000
H      -46.44620000     -31.50590000     -75.15610000
H      -44.68690000     -31.67190000     -75.33630000
C      -47.86780000     -35.46700000     -72.25060000
H      -48.66570000     -34.73130000     -72.34600000
H      -48.05560000     -36.25460000     -72.92640000
S      -45.21710000     -30.26990000     -73.49160000
S      -47.87440000     -36.08360000     -70.50610000
C      -46.31050000     -30.68280000     -72.03620000
H      -47.12070000     -29.94970000     -72.04260000
H      -46.62960000     -31.72900000     -72.11330000
C      -48.13830000     -34.56760000     -69.49620000
H      -48.06570000     -35.02440000     -68.50190000
H      -49.21630000     -34.17180000     -69.55780000
C      -47.24510000     -33.48500000     -69.89530000
H      -47.37090000     -33.12990000     -70.93170000
H      -47.47080000     -32.70990000     -69.20010000
C      -45.62720000     -30.47920000     -70.66560000
H      -46.33660000     -30.50540000     -69.87660000
H      -45.05950000     -29.46270000     -70.66480000
C      -44.57590000     -31.53130000     -70.41020000
C      -43.21400000     -31.21000000     -70.42860000
C      -44.66000000     -32.95560000     -70.08760000
H      -42.86490000     -30.30680000     -70.81010000
C      -43.42850000     -33.59770000     -69.74020000
C      -45.81250000     -33.80930000     -69.73080000
C      -45.32830000     -34.99050000     -69.19210000
S      -42.06590000     -32.46420000     -69.89840000
S      -43.56760000     -35.17260000     -69.05630000
H      -45.99970000     -35.84020000     -68.82270000
