40
Properties=species:S:1:pos:R:3 #=T CELL(abcABC):=T 1.889726e+02=T 90.00000=T Traj:=T positionsangstrom=T Step:=T 0=T Bead:=T pbc="F F F"
C      -45.73950000     -35.40400000     -72.57880000
C      -46.83990000     -34.59310000     -72.70050000
C      -46.67010000     -33.32380000     -73.26870000
C      -45.40860000     -32.86190000     -73.70170000
C      -44.31260000     -33.67810000     -73.61430000
C      -44.52070000     -34.96480000     -73.08580000
H      -45.81020000     -36.40780000     -72.17380000
H      -47.55170000     -32.70560000     -73.44740000
H      -43.33280000     -33.34220000     -73.91240000
H      -43.57490000     -35.46580000     -73.04350000
C      -45.11080000     -31.56730000     -74.45530000
H      -45.92220000     -31.30780000     -75.22650000
H      -44.21900000     -31.71660000     -75.05350000
C      -48.26580000     -35.03290000     -72.27050000
H      -48.93220000     -34.19080000     -72.41040000
H      -48.59750000     -35.81110000     -72.94780000
S      -44.72800000     -30.11330000     -73.38010000
S      -48.43390000     -35.60110000     -70.61260000
C      -45.75840000     -30.36700000     -71.94220000
H      -46.41000000     -29.44640000     -71.94830000
H      -46.42700000     -31.22580000     -72.25360000
C      -48.28670000     -34.11360000     -69.52880000
H      -48.23070000     -34.47420000     -68.48500000
H      -49.25180000     -33.60910000     -69.64060000
C      -47.20620000     -33.08220000     -69.83280000
H      -47.35940000     -32.48810000     -70.77520000
H      -47.24880000     -32.32290000     -69.03600000
C      -45.06030000     -30.61400000     -70.64210000
H      -45.81390000     -30.60920000     -69.89610000
H      -44.36750000     -29.76670000     -70.43000000
C      -44.19900000     -31.89670000     -70.58020000
C      -42.85450000     -31.86520000     -70.83990000
C      -44.61530000     -33.11580000     -70.05030000
H      -42.17260000     -31.01100000     -71.22230000
C      -43.49530000     -33.97750000     -69.83120000
C      -45.80990000     -33.71940000     -69.66350000
C      -45.65470000     -34.96610000     -69.03090000
S      -42.00730000     -33.30430000     -70.34750000
S      -43.95040000     -35.44890000     -69.03880000
H      -46.40320000     -35.60690000     -68.80200000
