40
Properties=species:S:1:pos:R:3 #=T CELL(abcABC):=T 1.889726e+02=T 90.00000=T Traj:=T positionsangstrom=T Step:=T 0=T Bead:=T pbc="F F F"
C      -45.78150000     -35.43330000     -72.55500000
C      -46.84160000     -34.52360000     -72.65590000
C      -46.61650000     -33.33240000     -73.41750000
C      -45.35000000     -32.93720000     -73.88080000
C      -44.29900000     -33.85830000     -73.70280000
C      -44.54730000     -35.12430000     -73.15620000
H      -46.01880000     -36.40400000     -72.06940000
H      -47.39930000     -32.58920000     -73.45450000
H      -43.32170000     -33.63220000     -74.10330000
H      -43.71930000     -35.78960000     -73.15850000
C      -45.14290000     -31.55980000     -74.46700000
H      -46.08510000     -31.29420000     -74.97650000
H      -44.44600000     -31.50910000     -75.18410000
C      -48.29960000     -34.69430000     -72.27210000
H      -48.92370000     -33.77140000     -72.30780000
H      -48.78090000     -35.49450000     -72.89420000
S      -44.54860000     -30.27130000     -73.30650000
S      -48.44430000     -35.42470000     -70.55620000
C      -45.63040000     -30.31140000     -71.79720000
H      -46.02660000     -29.33540000     -71.64480000
H      -46.42240000     -30.97440000     -71.89580000
C      -48.45380000     -33.89920000     -69.48560000
H      -48.64440000     -34.21490000     -68.43400000
H      -49.23290000     -33.20170000     -69.77070000
C      -47.18750000     -32.99530000     -69.65710000
H      -47.22450000     -32.47550000     -70.58070000
H      -47.35010000     -32.26280000     -68.78620000
C      -44.98340000     -30.57450000     -70.47600000
H      -45.65360000     -30.37450000     -69.62490000
H      -44.31990000     -29.70460000     -70.27600000
C      -44.15520000     -31.81740000     -70.33380000
C      -42.81880000     -31.82140000     -70.66130000
C      -44.60660000     -33.09690000     -69.91780000
H      -42.30360000     -30.87310000     -70.90930000
C      -43.56010000     -34.03680000     -69.90940000
C      -45.88010000     -33.72110000     -69.52780000
C      -45.64540000     -35.01890000     -69.06270000
S      -42.07790000     -33.39730000     -70.46700000
S      -44.03100000     -35.58290000     -69.36290000
H      -46.42220000     -35.59060000     -68.77880000
