40
Properties=species:S:1:pos:R:3 #=T CELL(abcABC):=T 1.889726e+02=T 90.00000=T Traj:=T positionsangstrom=T Step:=T 0=T Bead:=T pbc="F F F"
C      -46.49310000     -35.15890000     -72.50820000
C      -47.25580000     -34.04540000     -72.74720000
C      -46.72910000     -32.82670000     -73.31580000
C      -45.45300000     -32.80330000     -73.87090000
C      -44.70140000     -33.99810000     -73.71550000
C      -45.16690000     -35.11510000     -72.97600000
H      -46.82400000     -36.10410000     -72.07290000
H      -47.43690000     -32.00980000     -73.32100000
H      -43.62270000     -33.98110000     -74.07390000
H      -44.51930000     -35.98230000     -72.77840000
C      -44.81120000     -31.55850000     -74.42060000
H      -45.50690000     -30.97220000     -74.98870000
H      -44.13390000     -31.97860000     -75.16770000
C      -48.66360000     -33.99750000     -72.29270000
H      -49.09680000     -33.02520000     -72.22070000
H      -49.28470000     -34.59420000     -73.01020000
S      -43.94050000     -30.50160000     -73.21680000
S      -48.85730000     -35.00640000     -70.65190000
C      -45.13790000     -30.31760000     -71.85400000
H      -45.34160000     -29.25950000     -71.86200000
H      -46.03160000     -30.97300000     -71.99150000
C      -48.36150000     -33.76780000     -69.45670000
H      -48.12900000     -34.27910000     -68.49020000
H      -49.15080000     -32.96910000     -69.28080000
C      -47.01460000     -32.91920000     -69.64680000
H      -47.03600000     -32.42290000     -70.54940000
H      -46.96490000     -32.18250000     -68.89020000
C      -44.57860000     -30.70140000     -70.40780000
H      -45.44910000     -30.81280000     -69.73830000
H      -44.02620000     -29.81640000     -70.04320000
C      -43.86210000     -31.99080000     -70.30260000
C      -42.51330000     -32.07470000     -70.59250000
C      -44.44230000     -33.26780000     -69.93800000
H      -41.85530000     -31.23890000     -70.87330000
C      -43.50080000     -34.29690000     -69.96520000
C      -45.79900000     -33.77320000     -69.64310000
C      -45.83640000     -35.09710000     -69.31500000
S      -41.90130000     -33.75170000     -70.36500000
S      -44.24440000     -35.84390000     -69.45820000
H      -46.71580000     -35.75360000     -69.13510000
