40
Properties=species:S:1:pos:R:3 #=T CELL(abcABC):=T 1.889726e+02=T 90.00000=T Traj:=T positionsangstrom=T Step:=T 0=T Bead:=T pbc="F F F"
C      -46.75900000     -35.15270000     -72.56310000
C      -47.43230000     -33.91310000     -72.74060000
C      -46.90540000     -32.85520000     -73.43490000
C      -45.57140000     -32.87950000     -73.84820000
C      -44.80760000     -34.11510000     -73.62740000
C      -45.46550000     -35.21120000     -73.10540000
H      -47.20750000     -35.95560000     -71.96020000
H      -47.47640000     -31.93270000     -73.40180000
H      -43.83690000     -34.16920000     -74.00970000
H      -44.85440000     -36.09510000     -73.08820000
C      -44.81360000     -31.69420000     -74.40000000
H      -45.60140000     -31.07380000     -74.82310000
H      -44.13360000     -31.85940000     -75.21070000
C      -48.84200000     -33.77180000     -72.28580000
H      -49.15530000     -32.71110000     -72.27880000
H      -49.46290000     -34.43530000     -72.83960000
S      -43.85630000     -30.55720000     -73.26390000
S      -49.06810000     -34.39860000     -70.52790000
C      -44.98410000     -30.36590000     -71.78230000
H      -45.18360000     -29.28430000     -71.73320000
H      -45.93810000     -30.84980000     -71.72390000
C      -48.20150000     -33.23320000     -69.33430000
H      -48.16800000     -33.78020000     -68.40400000
H      -48.70890000     -32.26700000     -69.12790000
C      -46.80980000     -32.79900000     -69.70050000
H      -46.93650000     -32.18410000     -70.58640000
H      -46.46300000     -32.00110000     -69.00660000
C      -44.28710000     -30.76260000     -70.35050000
H      -45.15390000     -30.81940000     -69.63700000
H      -43.63700000     -29.87490000     -70.16160000
C      -43.63260000     -32.12460000     -70.37290000
C      -42.29800000     -32.37250000     -70.56980000
C      -44.33480000     -33.38260000     -70.00160000
H      -41.51070000     -31.66800000     -70.88110000
C      -43.45150000     -34.49940000     -69.85640000
C      -45.66180000     -33.78810000     -69.74860000
C      -45.85880000     -35.09140000     -69.46230000
S      -41.79530000     -34.11000000     -70.32710000
S      -44.32690000     -35.98110000     -69.50570000
H      -46.84600000     -35.60050000     -69.18160000
