40
Properties=species:S:1:pos:R:3 #=T CELL(abcABC):=T 1.889726e+02=T 90.00000=T Traj:=T positionsangstrom=T Step:=T 0=T Bead:=T pbc="F F F"
C      -46.91760000     -35.09860000     -72.70490000
C      -47.54800000     -33.78150000     -72.71720000
C      -46.89630000     -32.67780000     -73.23060000
C      -45.56980000     -32.86820000     -73.76000000
C      -44.89630000     -34.09850000     -73.62710000
C      -45.58370000     -35.21200000     -73.08860000
H      -47.45440000     -35.96280000     -72.46910000
H      -47.40490000     -31.70370000     -73.38760000
H      -43.86860000     -34.17070000     -73.88110000
H      -45.05680000     -36.23540000     -73.06420000
C      -44.85680000     -31.71160000     -74.46710000
H      -45.55990000     -31.13290000     -75.05250000
H      -44.02480000     -32.17460000     -75.16610000
C      -48.93450000     -33.60620000     -72.13370000
H      -49.23950000     -32.53930000     -72.10570000
H      -49.65890000     -34.20450000     -72.75070000
S      -43.81960000     -30.73250000     -73.29360000
S      -49.05050000     -34.39310000     -70.41740000
C      -44.80110000     -30.59430000     -71.74840000
H      -45.38030000     -29.67550000     -71.85450000
H      -45.47310000     -31.46270000     -71.88320000
C      -48.27250000     -32.99790000     -69.40090000
H      -48.50160000     -33.37580000     -68.37700000
H      -48.80770000     -32.01650000     -69.54890000
C      -46.84650000     -32.66440000     -69.80540000
H      -46.92310000     -32.23940000     -70.81970000
H      -46.70210000     -31.84890000     -69.10890000
C      -43.90700000     -30.65340000     -70.51060000
H      -44.47820000     -30.38030000     -69.62180000
H      -42.94710000     -30.05850000     -70.52520000
C      -43.46900000     -32.12810000     -70.27700000
C      -42.20890000     -32.52480000     -70.62040000
C      -44.27760000     -33.35840000     -69.95530000
H      -41.37850000     -31.87490000     -70.81030000
C      -43.52710000     -34.50990000     -69.89500000
C      -45.65840000     -33.70490000     -69.57020000
C      -45.85820000     -35.03890000     -69.43340000
S      -41.82600000     -34.24060000     -70.35390000
S      -44.40060000     -35.97480000     -69.59710000
H      -46.86450000     -35.48070000     -69.28350000
