40
Properties=species:S:1:pos:R:3 #=T CELL(abcABC):=T 1.889726e+02=T 90.00000=T Traj:=T positionsangstrom=T Step:=T 0=T Bead:=T pbc="F F F"
C      -46.92180000     -35.13830000     -72.73150000
C      -47.57460000     -33.89350000     -72.74490000
C      -46.91000000     -32.72940000     -73.30690000
C      -45.61810000     -32.90840000     -73.86340000
C      -44.99440000     -34.14900000     -73.89240000
C      -45.67950000     -35.21540000     -73.29880000
H      -47.33630000     -35.97340000     -72.25430000
H      -47.28350000     -31.72420000     -73.31750000
H      -43.95700000     -34.25160000     -74.33550000
H      -45.13010000     -36.16290000     -73.26300000
C      -45.00000000     -31.63200000     -74.37120000
H      -45.75370000     -30.87860000     -74.53910000
H      -44.49520000     -31.80790000     -75.34080000
C      -48.89500000     -33.71070000     -72.07890000
H      -49.23030000     -32.72190000     -72.26340000
H      -49.64070000     -34.22900000     -72.66080000
S      -43.58740000     -30.91190000     -73.26110000
S      -48.99780000     -34.23140000     -70.35410000
C      -44.60470000     -30.38910000     -71.81140000
H      -44.97750000     -29.35230000     -71.81390000
H      -45.51780000     -31.06150000     -71.77320000
C      -48.14760000     -33.03900000     -69.19970000
H      -48.10530000     -33.53810000     -68.22730000
H      -48.85250000     -32.28280000     -69.09850000
C      -46.83230000     -32.50190000     -69.67150000
H      -47.06260000     -32.14970000     -70.73650000
H      -46.50290000     -31.63090000     -69.00720000
C      -43.95520000     -30.75860000     -70.37430000
H      -44.78620000     -30.60740000     -69.73430000
H      -43.22990000     -29.99070000     -70.14500000
C      -43.44090000     -32.17210000     -70.34840000
C      -42.13610000     -32.60280000     -70.52310000
C      -44.29620000     -33.31310000     -70.08040000
H      -41.32340000     -31.92730000     -70.73820000
C      -43.61860000     -34.50830000     -70.00500000
C      -45.74400000     -33.57500000     -69.67560000
C      -45.95470000     -34.89910000     -69.43740000
S      -41.84280000     -34.35100000     -70.33130000
S      -44.54590000     -35.91220000     -69.58070000
H      -46.93590000     -35.27170000     -69.15920000
