40
Properties=species:S:1:pos:R:3 #=T CELL(abcABC):=T 1.889726e+02=T 90.00000=T Traj:=T positionsangstrom=T Step:=T 0=T Bead:=T pbc="F F F"
C      -46.91400000     -35.11780000     -72.81870000
C      -47.49000000     -33.85150000     -72.64030000
C      -46.82010000     -32.64850000     -73.20040000
C      -45.60120000     -32.83340000     -73.88860000
C      -45.05600000     -34.11350000     -73.97560000
C      -45.66080000     -35.21320000     -73.44350000
H      -47.34700000     -36.03620000     -72.37150000
H      -47.13760000     -31.63440000     -73.03610000
H      -44.07090000     -34.17080000     -74.54910000
H      -45.11840000     -36.10840000     -73.51900000
C      -44.79710000     -31.65870000     -74.35770000
H      -45.42450000     -30.69710000     -74.48350000
H      -44.27220000     -31.85130000     -75.21430000
C      -48.92060000     -33.67820000     -72.06050000
H      -49.24200000     -32.59420000     -72.06000000
H      -49.63020000     -34.40920000     -72.49600000
S      -43.54680000     -31.18950000     -73.16190000
S      -49.03830000     -34.16040000     -70.22260000
C      -44.52810000     -30.36690000     -71.76460000
H      -44.63030000     -29.26750000     -71.88330000
H      -45.54920000     -30.72620000     -71.85700000
C      -48.23530000     -32.73820000     -69.40100000
H      -48.23800000     -32.78760000     -68.27880000
H      -48.94130000     -31.86820000     -69.67980000
C      -46.71560000     -32.48010000     -69.65760000
H      -46.49820000     -32.06780000     -70.64100000
H      -46.40540000     -31.69610000     -69.03170000
C      -43.96460000     -30.66490000     -70.40450000
H      -44.59860000     -30.40600000     -69.51220000
H      -43.00150000     -30.19790000     -70.22330000
C      -43.57480000     -32.20110000     -70.35360000
C      -42.19130000     -32.52790000     -70.49780000
C      -44.33030000     -33.35440000     -70.13110000
H      -41.33830000     -31.86780000     -70.79690000
C      -43.63230000     -34.57160000     -70.12900000
C      -45.76360000     -33.67080000     -69.75980000
C      -46.04390000     -34.99980000     -69.49550000
S      -41.91070000     -34.31020000     -70.29550000
S      -44.56630000     -35.96770000     -69.62770000
H      -46.87270000     -35.44600000     -69.02590000
