40
Properties=species:S:1:pos:R:3 #=T CELL(abcABC):=T 1.889726e+02=T 90.00000=T Traj:=T positionsangstrom=T Step:=T 0=T Bead:=T pbc="F F F"
C      -47.21190000     -34.72460000     -72.59190000
C      -47.58430000     -33.34410000     -72.57410000
C      -46.73490000     -32.40340000     -73.17740000
C      -45.53110000     -32.82790000     -73.76700000
C      -45.16020000     -34.20560000     -73.78790000
C      -46.02770000     -35.14590000     -73.20320000
H      -47.89130000     -35.39830000     -72.16580000
H      -47.05930000     -31.39190000     -73.18560000
H      -44.18960000     -34.50200000     -74.12050000
H      -45.80330000     -36.26980000     -73.26920000
C      -44.63680000     -31.84280000     -74.46970000
H      -45.30710000     -30.97890000     -74.76160000
H      -44.04150000     -32.24670000     -75.31450000
C      -48.87330000     -32.95820000     -71.90800000
H      -48.88780000     -31.90840000     -71.60630000
H      -49.59520000     -33.22160000     -72.60120000
S      -43.44740000     -31.04970000     -73.45610000
S      -49.10800000     -33.90720000     -70.32210000
C      -44.32650000     -30.57820000     -71.88610000
H      -44.29870000     -29.49190000     -71.85740000
H      -45.42820000     -30.78960000     -71.99560000
C      -48.11590000     -32.83810000     -69.19710000
H      -48.15140000     -33.30730000     -68.23790000
H      -48.63150000     -31.91080000     -69.10210000
C      -46.73960000     -32.51780000     -69.59910000
H      -46.75730000     -31.91570000     -70.51460000
H      -46.25920000     -31.82860000     -68.89090000
C      -43.80680000     -31.03360000     -70.56730000
H      -44.61580000     -30.66150000     -69.93510000
H      -42.87650000     -30.49730000     -70.31830000
C      -43.40320000     -32.43590000     -70.40170000
C      -42.10500000     -32.83340000     -70.34040000
C      -44.33940000     -33.54640000     -70.13060000
H      -41.39160000     -32.12690000     -70.54950000
C      -43.65920000     -34.72290000     -70.13160000
C      -45.73540000     -33.72240000     -69.73620000
C      -46.02810000     -35.01980000     -69.41650000
S      -41.91670000     -34.54560000     -70.33940000
S      -44.68110000     -36.12050000     -69.64300000
H      -46.85950000     -35.40670000     -68.85880000
