40
Properties=species:S:1:pos:R:3 #=T CELL(abcABC):=T 1.889726e+02=T 90.00000=T Traj:=T positionsangstrom=T Step:=T 0=T Bead:=T pbc="F F F"
C      -47.03460000     -34.71720000     -72.74890000
C      -47.45730000     -33.37540000     -72.59470000
C      -46.69110000     -32.32960000     -73.11850000
C      -45.57420000     -32.61190000     -73.92700000
C      -45.11320000     -33.90430000     -73.93850000
C      -45.77740000     -34.98780000     -73.29890000
H      -47.67660000     -35.50320000     -72.31840000
H      -47.10580000     -31.27210000     -73.03090000
H      -44.18230000     -34.12180000     -74.53100000
H      -45.44860000     -35.94850000     -73.29530000
C      -44.77830000     -31.45730000     -74.48980000
H      -45.41390000     -30.57570000     -74.78560000
H      -44.22920000     -31.70730000     -75.38970000
C      -48.81680000     -32.97800000     -71.98940000
H      -48.99510000     -31.94440000     -72.09100000
H      -49.71650000     -33.46270000     -72.47060000
S      -43.42140000     -31.02780000     -73.22260000
S      -49.09710000     -33.62290000     -70.25490000
C      -44.40750000     -30.72750000     -71.69980000
H      -44.56230000     -29.61050000     -71.67100000
H      -45.42550000     -31.09070000     -71.74940000
C      -48.00380000     -32.63980000     -69.09600000
H      -48.16660000     -33.13070000     -68.13950000
H      -48.47540000     -31.65270000     -69.01040000
C      -46.49960000     -32.43840000     -69.36030000
H      -46.38930000     -31.92730000     -70.29240000
H      -46.01950000     -31.84680000     -68.57250000
C      -43.59730000     -31.18140000     -70.46320000
H      -44.15050000     -30.94230000     -69.51740000
H      -42.66570000     -30.54700000     -70.40160000
C      -43.32040000     -32.65590000     -70.41890000
C      -42.12860000     -33.17140000     -70.72720000
C      -44.27650000     -33.64140000     -70.09110000
H      -41.19660000     -32.70900000     -71.00910000
C      -43.80940000     -34.99950000     -70.25490000
C      -45.64300000     -33.65860000     -69.59560000
C      -46.04040000     -34.91630000     -69.19790000
S      -42.13420000     -34.94790000     -70.67290000
S      -44.93060000     -36.16360000     -69.56750000
H      -47.05650000     -35.12420000     -68.87940000
