40
Properties=species:S:1:pos:R:3 #=T CELL(abcABC):=T 1.889726e+02=T 90.00000=T Traj:=T positionsangstrom=T Step:=T 0=T Bead:=T pbc="F F F"
C      -47.08070000     -34.57930000     -72.60930000
C      -47.59340000     -33.29300000     -72.60310000
C      -46.88840000     -32.26380000     -73.32220000
C      -45.61250000     -32.56280000     -73.92030000
C      -45.10440000     -33.85500000     -73.80010000
C      -45.86510000     -34.84600000     -73.24400000
H      -47.62570000     -35.38120000     -72.08080000
H      -47.25580000     -31.24630000     -73.37410000
H      -44.07800000     -34.04100000     -73.99290000
H      -45.44600000     -35.82610000     -73.21530000
C      -44.75950000     -31.42260000     -74.38960000
H      -45.30830000     -30.52820000     -74.57660000
H      -44.23240000     -31.72250000     -75.37610000
C      -48.82580000     -32.97070000     -71.82880000
H      -48.80650000     -31.87980000     -71.64930000
H      -49.73480000     -33.25290000     -72.34800000
S      -43.32110000     -30.84540000     -73.22500000
S      -48.84940000     -33.80260000     -70.19960000
C      -44.13060000     -30.65850000     -71.59270000
H      -44.22440000     -29.58150000     -71.37860000
H      -45.11860000     -31.13780000     -71.66250000
C      -48.01980000     -32.53230000     -69.17260000
H      -48.29920000     -32.80400000     -68.12490000
H      -48.59090000     -31.65920000     -69.35390000
C      -46.55210000     -32.36330000     -69.38590000
H      -46.51910000     -31.77300000     -70.33810000
H      -46.16320000     -31.64320000     -68.62420000
C      -43.29710000     -31.27450000     -70.31810000
H      -43.76850000     -31.00830000     -69.40850000
H      -42.29380000     -30.85590000     -70.30590000
C      -43.21890000     -32.77850000     -70.40710000
C      -42.14570000     -33.41020000     -70.90700000
C      -44.27120000     -33.68630000     -69.97620000
H      -41.28920000     -32.99080000     -71.48390000
C      -43.88740000     -34.99640000     -70.14920000
C      -45.70180000     -33.58860000     -69.51670000
C      -46.12480000     -34.88360000     -69.21700000
S      -42.35170000     -35.13390000     -70.91570000
S      -45.04980000     -36.16030000     -69.65190000
H      -47.17130000     -35.13880000     -68.88910000
