40
Properties=species:S:1:pos:R:3 #=T CELL(abcABC):=T 1.889726e+02=T 90.00000=T Traj:=T positionsangstrom=T Step:=T 0=T Bead:=T pbc="F F F"
C      -45.66180000     -30.24180000     -71.22150000
C      -44.90710000     -30.47810000     -72.34170000
C      -45.53860000     -30.94240000     -73.48620000
C      -46.90470000     -31.38050000     -73.46710000
C      -47.63230000     -31.07680000     -72.30870000
C      -47.02740000     -30.47560000     -71.20640000
H      -45.08140000     -29.97910000     -70.33670000
H      -44.92250000     -31.04690000     -74.42380000
H      -48.80440000     -31.26630000     -72.30840000
H      -47.65280000     -30.32720000     -70.29650000
C      -47.65380000     -32.07060000     -74.65420000
H      -47.52080000     -31.52850000     -75.65940000
H      -48.73000000     -32.04890000     -74.45810000
C      -43.42460000     -30.21150000     -72.38270000
H      -42.94090000     -30.62490000     -73.31810000
H      -43.14830000     -29.13440000     -72.60250000
S      -47.02300000     -33.71070000     -74.91700000
S      -42.35560000     -30.53660000     -70.95960000
C      -47.14320000     -34.53180000     -73.29220000
H      -48.15660000     -34.39430000     -72.98460000
H      -47.09820000     -35.55030000     -73.56280000
C      -42.52600000     -32.30410000     -70.65900000
H      -41.65700000     -32.43770000     -69.91470000
H      -42.43630000     -32.91260000     -71.54140000
C      -43.91520000     -32.61240000     -70.09790000
H      -44.12750000     -32.00210000     -69.18030000
H      -44.66770000     -32.37970000     -70.85070000
C      -46.17240000     -34.10840000     -72.25880000
H      -46.55740000     -33.16760000     -71.77730000
H      -45.13780000     -33.89160000     -72.65840000
C      -46.02660000     -35.10410000     -71.11310000
C      -46.80850000     -36.27020000     -70.99040000
C      -45.11030000     -34.98070000     -70.07850000
H      -47.54570000     -36.58120000     -71.75020000
C      -45.10010000     -36.13630000     -69.26790000
C      -44.12460000     -34.03950000     -69.62870000
C      -43.47300000     -34.41670000     -68.46670000
S      -46.38050000     -37.30780000     -69.64560000
S      -44.00890000     -36.08000000     -67.96570000
H      -42.66030000     -33.96060000     -67.90760000
