40
Properties=species:S:1:pos:R:3 #=T CELL(abcABC):=T 1.889726e+02=T 90.00000=T Traj:=T positionsangstrom=T Step:=T 0=T Bead:=T pbc="F F F"
C      -45.92330000     -29.21220000     -71.50010000
C      -45.12020000     -29.99790000     -72.33580000
C      -45.86250000     -31.02230000     -73.00500000
C      -47.23420000     -31.16060000     -72.93980000
C      -47.92470000     -30.27920000     -72.11810000
C      -47.32520000     -29.27890000     -71.40270000
H      -45.32920000     -28.40260000     -71.01750000
H      -45.38570000     -31.65400000     -73.71250000
H      -48.96850000     -30.42840000     -71.92710000
H      -47.86670000     -28.62750000     -70.58930000
C      -48.00090000     -32.15910000     -73.82470000
H      -48.34490000     -31.66580000     -74.72110000
H      -48.94320000     -32.47160000     -73.28990000
C      -43.67460000     -29.90230000     -72.57090000
H      -43.36730000     -30.39450000     -73.52890000
H      -43.31380000     -28.90690000     -72.80850000
S      -47.02150000     -33.48900000     -74.63090000
S      -42.79990000     -30.65150000     -71.08090000
C      -46.92620000     -34.76290000     -73.32930000
H      -47.80890000     -35.32270000     -73.12250000
H      -46.28800000     -35.56660000     -73.70110000
C      -43.10630000     -32.46820000     -71.07870000
H      -42.13940000     -32.88430000     -70.90580000
H      -43.50970000     -32.91860000     -72.01660000
C      -44.00170000     -32.80680000     -69.79470000
H      -43.49770000     -32.29170000     -68.97990000
H      -45.04820000     -32.54910000     -70.02320000
C      -46.32490000     -34.17440000     -72.02430000
H      -46.93650000     -33.37270000     -71.51850000
H      -45.46340000     -33.52820000     -72.41120000
C      -45.94530000     -35.21900000     -71.05820000
C      -46.52800000     -36.48270000     -71.12290000
C      -44.95100000     -35.20040000     -70.05150000
H      -47.31890000     -36.77500000     -71.74840000
C      -44.81540000     -36.40180000     -69.39410000
C      -43.94640000     -34.25650000     -69.55580000
C      -43.08850000     -34.84980000     -68.64630000
S      -45.82490000     -37.63620000     -69.93730000
S      -43.44280000     -36.54920000     -68.32760000
H      -42.44980000     -34.31000000     -67.88640000
