40
Properties=species:S:1:pos:R:3 #=T CELL(abcABC):=T 1.889726e+02=T 90.00000=T Traj:=T positionsangstrom=T Step:=T 0=T Bead:=T pbc="F F F"
C      -45.93810000     -29.14130000     -71.72930000
C      -45.16180000     -30.04070000     -72.48200000
C      -45.94100000     -31.03450000     -73.11170000
C      -47.34790000     -31.24000000     -72.85150000
C      -47.98850000     -30.30360000     -72.08800000
C      -47.33260000     -29.18880000     -71.65870000
H      -45.46700000     -28.32400000     -71.15070000
H      -45.47190000     -31.68740000     -73.80370000
H      -49.02480000     -30.39300000     -71.99400000
H      -48.00320000     -28.36300000     -71.13250000
C      -48.20590000     -32.25480000     -73.54250000
H      -48.90730000     -31.61370000     -74.10310000
H      -48.80580000     -32.83610000     -72.82090000
C      -43.71840000     -29.89380000     -72.63110000
H      -43.33720000     -30.54040000     -73.43860000
H      -43.52130000     -28.82590000     -72.68950000
S      -47.22980000     -33.42230000     -74.56670000
S      -42.78940000     -30.47320000     -71.10670000
C      -46.68320000     -34.67850000     -73.31660000
H      -47.59010000     -35.32650000     -73.40160000
H      -45.76820000     -35.17200000     -73.76460000
C      -43.21360000     -32.30750000     -71.07450000
H      -42.28640000     -32.85930000     -71.26940000
H      -43.81620000     -32.50370000     -71.95040000
C      -43.96540000     -32.78170000     -69.75390000
H      -43.62530000     -32.34090000     -68.83840000
H      -45.02670000     -32.43480000     -69.79000000
C      -46.40010000     -34.18060000     -71.90620000
H      -47.30610000     -33.83270000     -71.48610000
H      -45.66920000     -33.41930000     -71.98330000
C      -45.90980000     -35.31930000     -70.98920000
C      -46.44740000     -36.59470000     -71.04830000
C      -44.82940000     -35.32970000     -70.05400000
H      -47.31650000     -36.94170000     -71.57340000
C      -44.63630000     -36.55130000     -69.45520000
C      -43.92120000     -34.27550000     -69.50470000
C      -43.17300000     -34.78580000     -68.47710000
S      -45.67420000     -37.80120000     -70.08050000
S      -43.31390000     -36.54070000     -68.27420000
H      -42.27760000     -34.28890000     -68.02010000
