40
Properties=species:S:1:pos:R:3 #=T CELL(abcABC):=T 1.889726e+02=T 90.00000=T Traj:=T positionsangstrom=T Step:=T 0=T Bead:=T pbc="F F F"
C      -47.54090000     -35.52680000     -69.48930000
C      -48.06770000     -35.10830000     -70.73770000
C      -48.49930000     -33.76010000     -70.90630000
C      -48.30060000     -32.84290000     -69.83720000
C      -47.71160000     -33.25720000     -68.63080000
C      -47.39290000     -34.59990000     -68.45300000
H      -47.13850000     -36.49130000     -69.62130000
H      -49.03700000     -33.38300000     -71.84410000
H      -47.50620000     -32.50820000     -67.87780000
H      -46.93960000     -34.84790000     -67.52810000
C      -48.66480000     -31.45340000     -70.01800000
H      -49.09340000     -31.11550000     -69.10100000
H      -49.38810000     -31.23980000     -70.87310000
C      -48.20800000     -36.11850000     -71.87350000
H      -47.53230000     -36.92540000     -71.53630000
H      -49.24530000     -36.35300000     -72.10940000
S      -47.31650000     -30.17150000     -70.21300000
S      -47.51020000     -35.40640000     -73.47080000
C      -45.70160000     -30.96860000     -69.89010000
H      -44.98140000     -30.10210000     -69.95800000
H      -45.56920000     -31.44000000     -68.88950000
C      -45.74590000     -35.22190000     -72.96760000
H      -45.16710000     -36.01560000     -73.32580000
H      -45.59110000     -35.40970000     -71.91590000
C      -45.27960000     -33.86310000     -73.41670000
H      -45.44050000     -33.81950000     -74.51340000
H      -45.82520000     -33.03540000     -73.08390000
C      -45.22670000     -31.93150000     -70.91950000
H      -45.26690000     -31.41330000     -71.87590000
H      -45.80540000     -32.87050000     -71.01670000
C      -43.74460000     -32.42010000     -70.73240000
C      -42.76610000     -32.07150000     -69.87660000
C      -43.20880000     -33.26820000     -71.77270000
H      -42.78670000     -31.40900000     -69.02720000
C      -41.82180000     -33.52650000     -71.71380000
C      -43.82010000     -33.65170000     -73.01960000
C      -42.88840000     -34.04820000     -73.95140000
S      -41.15620000     -32.76410000     -70.30920000
S      -41.22520000     -34.08610000     -73.27920000
H      -43.15120000     -34.45140000     -74.89890000
