40
Properties=species:S:1:pos:R:3 #=T CELL(abcABC):=T 1.889726e+02=T 90.00000=T Traj:=T positionsangstrom=T Step:=T 0=T Bead:=T pbc="F F F"
C      -44.60920000     -35.90090000     -71.63830000
C      -44.89390000     -35.89800000     -70.27570000
C      -46.10230000     -35.43800000     -69.82290000
C      -47.11990000     -35.05710000     -70.70520000
C      -46.84180000     -35.08240000     -72.07600000
C      -45.54080000     -35.46320000     -72.53170000
H      -43.60600000     -36.10000000     -72.08570000
H      -46.29100000     -35.42020000     -68.70430000
H      -47.65100000     -34.77000000     -72.78540000
H      -45.47600000     -35.55080000     -73.68000000
C      -48.44150000     -34.55450000     -69.96890000
H      -48.15280000     -34.29010000     -68.94390000
H      -49.24900000     -35.29810000     -69.94580000
C      -43.86670000     -36.39220000     -69.29160000
H      -44.50130000     -36.95340000     -68.45880000
H      -43.07470000     -37.05120000     -69.74040000
S      -49.26770000     -33.05070000     -70.65370000
S      -42.94370000     -35.09920000     -68.33700000
C      -48.04880000     -31.69880000     -70.02490000
H      -48.48160000     -30.76630000     -70.40470000
H      -48.25110000     -31.70550000     -68.92270000
C      -42.36340000     -33.85210000     -69.69850000
H      -42.23980000     -34.52220000     -70.60310000
H      -41.32050000     -33.50440000     -69.50190000
C      -43.39390000     -32.76310000     -69.88680000
H      -44.43680000     -33.17190000     -69.55300000
H      -43.18390000     -31.84000000     -69.30270000
C      -46.56950000     -31.93070000     -70.22220000
H      -46.33870000     -32.87510000     -69.80420000
H      -46.03700000     -31.21040000     -69.62550000
C      -46.11180000     -31.89200000     -71.67590000
C      -46.93090000     -31.59680000     -72.80450000
C      -44.72320000     -32.05340000     -72.01080000
H      -47.98840000     -31.57870000     -72.96030000
C      -44.56740000     -31.82460000     -73.40890000
C      -43.45790000     -32.31670000     -71.34910000
C      -42.33850000     -32.11720000     -72.14550000
S      -45.96700000     -31.50220000     -74.34480000
S      -42.84020000     -31.76550000     -73.81570000
H      -41.25260000     -32.23500000     -71.96150000
