40
Properties=species:S:1:pos:R:3 #=T CELL(abcABC):=T 1.889726e+02=T 90.00000=T Traj:=T positionsangstrom=T Step:=T 0=T Bead:=T pbc="F F F"
C      -43.98120000     -29.34990000     -72.21480000
C      -43.50510000     -30.27520000     -71.29100000
C      -44.35410000     -30.67510000     -70.25300000
C      -45.60150000     -30.14690000     -70.01950000
C      -46.08450000     -29.16870000     -70.86150000
C      -45.29860000     -28.81870000     -71.96760000
H      -43.42340000     -28.81450000     -73.01190000
H      -43.90010000     -31.35500000     -69.52800000
H      -47.03190000     -28.56010000     -70.70230000
H      -45.76450000     -28.28100000     -72.81080000
C      -46.44460000     -30.57450000     -68.86310000
H      -46.70060000     -29.77180000     -68.24120000
H      -45.97600000     -31.35070000     -68.27140000
C      -42.07740000     -30.86440000     -71.53450000
H      -41.55410000     -30.06560000     -72.03540000
H      -41.43220000     -31.00760000     -70.62070000
S      -48.11670000     -31.32000000     -69.19220000
S      -42.01180000     -32.18680000     -72.78820000
C      -47.86310000     -33.12980000     -69.53790000
H      -47.49890000     -33.63710000     -68.56060000
H      -48.85420000     -33.50700000     -69.81890000
C      -42.99870000     -33.57880000     -72.15120000
H      -43.30140000     -33.30240000     -71.13810000
H      -42.32580000     -34.41210000     -72.02640000
C      -44.19220000     -33.80760000     -73.05620000
H      -44.90960000     -32.97130000     -72.85730000
H      -43.98890000     -33.77820000     -74.11750000
C      -46.73300000     -33.39830000     -70.52780000
H      -45.77760000     -33.00030000     -70.14580000
H      -46.89650000     -32.85780000     -71.44600000
C      -46.50980000     -34.89230000     -70.77420000
C      -47.10310000     -35.85330000     -70.00130000
C      -45.71660000     -35.57070000     -71.80470000
H      -47.62270000     -35.64730000     -68.95300000
C      -45.80690000     -36.97440000     -71.66530000
C      -44.78260000     -35.17200000     -72.81990000
C      -44.36070000     -36.27630000     -73.55290000
S      -46.99760000     -37.49460000     -70.57610000
S      -45.05170000     -37.84760000     -72.97010000
H      -43.57740000     -36.31120000     -74.34980000
