40
Properties=species:S:1:pos:R:3 #=T CELL(abcABC):=T 1.889726e+02=T 90.00000=T Traj:=T positionsangstrom=T Step:=T 0=T Bead:=T pbc="F F F"
C      -44.46560000     -36.37240000     -71.28500000
C      -44.47820000     -36.03750000     -69.92570000
C      -45.58960000     -35.48970000     -69.37370000
C      -46.70890000     -35.22480000     -70.17050000
C      -46.66340000     -35.39190000     -71.57190000
C      -45.54670000     -35.98560000     -72.12270000
H      -43.56390000     -36.63450000     -71.84280000
H      -45.56500000     -35.50590000     -68.32310000
H      -47.36130000     -34.87830000     -72.20240000
H      -45.50910000     -36.10460000     -73.17000000
C      -48.00590000     -34.61780000     -69.51830000
H      -47.70480000     -34.55330000     -68.41740000
H      -48.74490000     -35.40410000     -69.65060000
C      -43.16590000     -36.27440000     -69.06430000
H      -43.34620000     -36.85300000     -68.18120000
H      -42.50150000     -36.93930000     -69.60320000
S      -48.63710000     -33.04320000     -70.27650000
S      -42.20590000     -34.72960000     -68.70090000
C      -47.73240000     -31.50520000     -69.54470000
H      -48.27430000     -30.66480000     -69.94200000
H      -47.91610000     -31.61840000     -68.51160000
C      -42.12480000     -33.96450000     -70.39900000
H      -42.20770000     -34.79240000     -71.15640000
H      -41.10170000     -33.59470000     -70.55770000
C      -43.33110000     -32.99660000     -70.56250000
H      -44.27970000     -33.40360000     -70.11890000
H      -43.21450000     -32.16320000     -69.91820000
C      -46.27810000     -31.36910000     -69.94570000
H      -45.49690000     -31.99530000     -69.60030000
H      -45.95730000     -30.25070000     -69.51190000
C      -46.12870000     -31.33110000     -71.47020000
C      -46.99630000     -30.65870000     -72.29430000
C      -45.02370000     -31.93740000     -72.26340000
H      -47.81050000     -30.08580000     -71.97710000
C      -45.39970000     -31.88260000     -73.59640000
C      -43.82010000     -32.64970000     -72.00200000
C      -43.19530000     -33.02480000     -73.20270000
S      -46.74100000     -30.87020000     -74.05260000
S      -44.05790000     -32.44140000     -74.60770000
H      -42.24460000     -33.48850000     -73.40900000
