40
Properties=species:S:1:pos:R:3 #=T CELL(abcABC):=T 1.889726e+02=T 90.00000=T Traj:=T positionsangstrom=T Step:=T 0=T Bead:=T pbc="F F F"
C      -45.99030000     -33.92450000     -67.42970000
C      -44.93520000     -34.41220000     -68.21860000
C      -44.00140000     -33.56970000     -68.73490000
C      -43.95280000     -32.17010000     -68.29700000
C      -44.94500000     -31.71220000     -67.45420000
C      -46.02270000     -32.52380000     -67.09560000
H      -46.81080000     -34.55820000     -66.98560000
H      -43.19440000     -33.96220000     -69.33020000
H      -44.96760000     -30.63100000     -67.20230000
H      -46.86980000     -32.11850000     -66.47830000
C      -42.79970000     -31.31540000     -68.65020000
H      -41.98270000     -31.43250000     -67.90370000
H      -43.06130000     -30.24650000     -68.57080000
C      -44.94890000     -35.98370000     -68.58200000
H      -44.20890000     -36.19800000     -69.38580000
H      -44.72200000     -36.69210000     -67.85000000
S      -42.03090000     -31.52620000     -70.30440000
S      -46.58800000     -36.53640000     -69.27530000
C      -43.37660000     -31.23700000     -71.50040000
H      -44.18780000     -30.63620000     -71.10050000
H      -42.87420000     -30.73020000     -72.35720000
C      -46.64590000     -35.81420000     -70.98360000
H      -47.48530000     -36.30440000     -71.44770000
H      -45.71150000     -36.00890000     -71.46790000
C      -46.86940000     -34.35900000     -71.05860000
H      -47.89110000     -34.20990000     -70.67020000
H      -46.12890000     -33.64140000     -70.55990000
C      -43.86440000     -32.60930000     -71.88950000
H      -44.40970000     -33.03940000     -70.98230000
H      -42.97100000     -33.24860000     -71.91800000
C      -44.63670000     -32.68830000     -73.23100000
C      -44.18670000     -32.06740000     -74.35510000
C      -45.96520000     -33.29180000     -73.40930000
H      -43.17150000     -31.61740000     -74.48780000
C      -46.42510000     -33.11200000     -74.74470000
C      -46.95370000     -34.00420000     -72.50250000
C      -47.95700000     -34.39370000     -73.32080000
S      -45.33000000     -32.17900000     -75.73050000
S      -47.86180000     -33.93620000     -75.03510000
H      -48.89880000     -34.91600000     -72.95070000
