40
Properties=species:S:1:pos:R:3 #=T CELL(abcABC):=T 1.889726e+02=T 90.00000=T Traj:=T positionsangstrom=T Step:=T 0=T Bead:=T pbc="F F F"
C      -43.22890000     -29.76900000     -72.55590000
C      -42.78430000     -31.09030000     -72.61480000
C      -43.53380000     -31.99960000     -73.29560000
C      -44.66050000     -31.64200000     -74.08090000
C      -45.13870000     -30.36790000     -73.96910000
C      -44.38630000     -29.44530000     -73.20350000
H      -42.73140000     -28.84310000     -72.16140000
H      -43.15210000     -32.98820000     -73.35060000
H      -46.10200000     -30.12670000     -74.49000000
H      -44.84060000     -28.41290000     -73.13960000
C      -45.32220000     -32.72500000     -74.84250000
H      -44.64010000     -33.16410000     -75.56110000
H      -46.12860000     -32.44110000     -75.50840000
C      -41.81230000     -31.54040000     -71.62020000
H      -41.48340000     -32.58840000     -71.50100000
H      -40.85360000     -30.98170000     -71.76860000
S      -46.01100000     -34.01920000     -73.75430000
S      -42.34860000     -31.29930000     -69.80390000
C      -47.55030000     -33.14350000     -73.09800000
H      -47.74230000     -32.20510000     -73.74060000
H      -48.54260000     -33.67640000     -73.24710000
C      -43.04890000     -32.91380000     -69.36540000
H      -43.35110000     -32.83410000     -68.28520000
H      -42.30160000     -33.69500000     -69.31970000
C      -44.31260000     -33.23960000     -70.18230000
H      -44.98470000     -32.41940000     -69.97850000
H      -44.21720000     -33.21300000     -71.26200000
C      -47.39410000     -32.75420000     -71.58710000
H      -48.19040000     -32.04910000     -71.40660000
H      -46.50570000     -32.11100000     -71.51870000
C      -47.51310000     -33.89250000     -70.64290000
C      -48.74420000     -34.50210000     -70.49780000
C      -46.46750000     -34.74600000     -70.14030000
H      -49.76160000     -34.22660000     -70.88270000
C      -46.89810000     -35.99680000     -69.68610000
C      -45.01790000     -34.47640000     -69.81510000
C      -44.51820000     -35.56810000     -69.13520000
S      -48.65310000     -36.10180000     -69.74710000
S      -45.61750000     -36.85160000     -68.89520000
H      -43.50620000     -35.69910000     -68.72200000
