40
Properties=species:S:1:pos:R:3 #=T CELL(abcABC):=T 1.889726e+02=T 90.00000=T Traj:=T positionsangstrom=T Step:=T 0=T Bead:=T pbc="F F F"
C      -44.83700000     -35.88910000     -71.50320000
C      -44.58500000     -35.66030000     -70.15490000
C      -45.60890000     -35.13380000     -69.38480000
C      -46.86040000     -34.73520000     -69.89080000
C      -47.07530000     -35.10110000     -71.23910000
C      -46.11000000     -35.63130000     -72.02900000
H      -43.94810000     -36.27560000     -72.07040000
H      -45.56000000     -35.03360000     -68.28130000
H      -48.11430000     -34.78250000     -71.58700000
H      -46.33480000     -35.70490000     -73.08370000
C      -47.85090000     -34.29200000     -68.90560000
H      -47.33110000     -34.00200000     -68.02890000
H      -48.53190000     -35.14310000     -68.57140000
C      -43.28020000     -36.25070000     -69.61420000
H      -43.51530000     -36.81720000     -68.76330000
H      -42.82840000     -36.92010000     -70.34590000
S      -48.66340000     -32.69580000     -69.50040000
S      -41.89110000     -35.01300000     -69.29290000
C      -47.38490000     -31.34620000     -69.31660000
H      -47.94280000     -30.37550000     -69.71520000
H      -47.14780000     -31.07830000     -68.27110000
C      -41.90980000     -33.86620000     -70.81340000
H      -42.03260000     -34.44800000     -71.75920000
H      -40.96630000     -33.36400000     -70.79250000
C      -43.06310000     -32.80240000     -70.68350000
H      -43.92620000     -33.23830000     -70.16180000
H      -42.95420000     -31.81350000     -70.03250000
C      -46.03980000     -31.63820000     -70.03370000
H      -45.54690000     -32.45040000     -69.60640000
H      -45.33870000     -30.77870000     -69.88300000
C      -46.23100000     -31.84910000     -71.49910000
C      -47.30960000     -31.51990000     -72.29850000
C      -45.06580000     -32.19840000     -72.31960000
H      -48.20810000     -31.18060000     -71.80130000
C      -45.37110000     -32.10420000     -73.69500000
C      -43.68440000     -32.43990000     -72.06400000
C      -43.00390000     -32.65870000     -73.22200000
S      -46.95930000     -31.67370000     -74.03460000
S      -43.91760000     -32.38320000     -74.68130000
H      -41.92320000     -32.88190000     -73.21120000
