40
Properties=species:S:1:pos:R:3 #=T CELL(abcABC):=T 1.889726e+02=T 90.00000=T Traj:=T positionsangstrom=T Step:=T 0=T Bead:=T pbc="F F F"
C      -45.93760000     -33.92780000     -67.49150000
C      -44.88200000     -34.44190000     -68.21820000
C      -43.82810000     -33.61100000     -68.54160000
C      -43.86920000     -32.26020000     -68.24920000
C      -44.89730000     -31.69100000     -67.51740000
C      -45.89820000     -32.54060000     -67.04520000
H      -46.89080000     -34.42160000     -67.37100000
H      -43.10150000     -34.03140000     -69.20690000
H      -44.80450000     -30.60970000     -67.17130000
H      -46.62590000     -32.22010000     -66.34320000
C      -42.69620000     -31.34390000     -68.54050000
H      -41.97220000     -31.66380000     -67.75270000
H      -42.83770000     -30.27670000     -68.53460000
C      -44.92200000     -35.94330000     -68.61980000
H      -44.19400000     -36.14750000     -69.41470000
H      -44.76110000     -36.61180000     -67.71970000
S      -41.92030000     -31.66750000     -70.23160000
S      -46.63870000     -36.34940000     -69.24200000
C      -43.40730000     -31.47530000     -71.39030000
H      -44.23850000     -30.99380000     -70.90620000
H      -43.10690000     -30.85030000     -72.17320000
C      -46.55240000     -35.76810000     -70.99440000
H      -47.16320000     -36.38250000     -71.70940000
H      -45.54570000     -36.02590000     -71.29060000
C      -46.87990000     -34.29460000     -71.16990000
H      -47.66960000     -34.09090000     -70.58620000
H      -46.06040000     -33.74610000     -70.64130000
C      -43.77070000     -32.75830000     -71.98140000
H      -44.29260000     -33.37880000     -71.17560000
H      -42.93190000     -33.33660000     -72.36360000
C      -44.78400000     -32.61950000     -73.23220000
C      -44.31930000     -31.99030000     -74.38730000
C      -46.03780000     -33.23730000     -73.44470000
H      -43.30030000     -31.75570000     -74.64060000
C      -46.50680000     -33.13230000     -74.75380000
C      -47.00740000     -33.88340000     -72.61400000
C      -48.08100000     -34.31240000     -73.31350000
S      -45.29700000     -32.28150000     -75.80140000
S      -48.06180000     -33.83160000     -75.04520000
H      -49.01970000     -34.66390000     -72.88280000
