40
Properties=species:S:1:pos:R:3 #=T CELL(abcABC):=T 1.889726e+02=T 90.00000=T Traj:=T positionsangstrom=T Step:=T 0=T Bead:=T pbc="F F F"
C      -47.32020000     -32.06380000     -71.96250000
C      -46.97000000     -31.27740000     -70.81880000
C      -45.60660000     -30.89930000     -70.67890000
C      -44.74020000     -30.88840000     -71.81590000
C      -45.12080000     -31.62820000     -72.94620000
C      -46.42200000     -32.13160000     -73.06310000
H      -48.31010000     -32.50480000     -72.04790000
H      -45.30370000     -30.47770000     -69.70510000
H      -44.48690000     -31.67200000     -73.81190000
H      -46.72590000     -32.66230000     -73.93480000
C      -43.40500000     -30.28310000     -71.69400000
H      -43.35360000     -29.58290000     -70.85090000
H      -43.19070000     -29.68880000     -72.59770000
C      -47.90700000     -31.14720000     -69.64180000
H      -47.33130000     -30.66440000     -68.77560000
H      -48.65380000     -30.42950000     -69.86000000
S      -42.02640000     -31.55350000     -71.45390000
S      -48.52570000     -32.81550000     -69.07400000
C      -42.66900000     -32.60840000     -70.02080000
H      -42.08020000     -32.28380000     -69.22120000
H      -43.73560000     -32.25540000     -69.83310000
C      -46.95230000     -33.76290000     -68.37100000
H      -47.26180000     -34.77520000     -68.12500000
H      -46.71150000     -33.21940000     -67.44100000
C      -45.70420000     -33.91020000     -69.21650000
H      -45.33270000     -32.96690000     -69.55300000
H      -44.99500000     -34.27640000     -68.47740000
C      -42.52050000     -34.09450000     -70.34210000
H      -42.76790000     -34.75780000     -69.46050000
H      -41.50180000     -34.42940000     -70.55800000
C      -43.40360000     -34.69540000     -71.49400000
C      -42.90700000     -35.18590000     -72.66890000
C      -44.79280000     -34.99550000     -71.44840000
H      -41.92500000     -35.05840000     -72.99300000
C      -45.32360000     -35.50920000     -72.65920000
C      -45.84390000     -34.78050000     -70.43580000
C      -47.05340000     -35.29410000     -70.85110000
S      -44.02230000     -35.85770000     -73.84160000
S      -47.10000000     -35.87950000     -72.54360000
H      -48.00510000     -35.19340000     -70.26200000
