40
Properties=species:S:1:pos:R:3 #=T CELL(abcABC):=T 1.889726e+02=T 90.00000=T Traj:=T positionsangstrom=T Step:=T 0=T Bead:=T pbc="F F F"
C      -47.21970000     -31.86910000     -71.92850000
C      -46.56470000     -31.29430000     -70.84890000
C      -45.24090000     -30.84020000     -70.96300000
C      -44.57520000     -30.84540000     -72.21060000
C      -45.25060000     -31.52230000     -73.28900000
C      -46.63990000     -31.94140000     -73.19850000
H      -48.28620000     -32.21740000     -71.90200000
H      -44.93120000     -30.28680000     -70.10030000
H      -44.68760000     -31.49700000     -74.29340000
H      -47.10320000     -32.43420000     -74.00330000
C      -43.12310000     -30.49150000     -72.29980000
H      -42.82610000     -29.67190000     -71.65200000
H      -42.87030000     -30.19110000     -73.34660000
C      -47.28170000     -31.17850000     -69.47620000
H      -46.47170000     -31.11350000     -68.74340000
H      -47.95660000     -30.30810000     -69.44090000
S      -42.13010000     -32.07070000     -71.99170000
S      -48.35320000     -32.59630000     -69.02310000
C      -42.64380000     -32.59160000     -70.29740000
H      -41.93630000     -32.07450000     -69.58920000
H      -43.62840000     -32.11520000     -70.05090000
C      -47.23340000     -33.81840000     -68.22860000
H      -47.78610000     -34.75960000     -68.11830000
H      -47.15100000     -33.43300000     -67.17130000
C      -45.87820000     -34.12660000     -68.79270000
H      -45.34110000     -33.13620000     -68.94570000
H      -45.41290000     -34.67500000     -68.07880000
C      -42.79330000     -34.12020000     -70.05310000
H      -43.38590000     -34.25300000     -69.10340000
H      -41.85690000     -34.66030000     -69.98600000
C      -43.52270000     -34.82970000     -71.19180000
C      -42.97570000     -35.20210000     -72.35400000
C      -44.95510000     -35.13190000     -71.14370000
H      -41.89980000     -35.12600000     -72.50150000
C      -45.41630000     -35.50280000     -72.41220000
C      -46.02390000     -34.80860000     -70.19200000
C      -47.23280000     -35.21200000     -70.73740000
S      -44.12040000     -35.78940000     -73.57460000
S      -47.10210000     -35.58130000     -72.52220000
H      -48.23110000     -35.08760000     -70.26470000
