40
Properties=species:S:1:pos:R:3 #=T CELL(abcABC):=T 1.889726e+02=T 90.00000=T Traj:=T positionsangstrom=T Step:=T 0=T Bead:=T pbc="F F F"
C      -47.41970000     -31.69920000     -71.89150000
C      -46.66910000     -31.19320000     -70.78570000
C      -45.30600000     -30.92940000     -71.03830000
C      -44.62550000     -31.25370000     -72.24890000
C      -45.43180000     -31.90330000     -73.24080000
C      -46.78770000     -32.07010000     -73.05880000
H      -48.42300000     -31.90230000     -71.74400000
H      -44.69650000     -30.48480000     -70.25070000
H      -44.94020000     -32.37400000     -74.01910000
H      -47.34100000     -32.47290000     -73.97780000
C      -43.16490000     -30.92760000     -72.45450000
H      -42.95180000     -29.93370000     -71.95430000
H      -43.00520000     -30.80460000     -73.51640000
C      -47.24010000     -30.92280000     -69.42110000
H      -46.33450000     -30.73110000     -68.74660000
H      -47.82510000     -29.95380000     -69.40550000
S      -41.86610000     -32.05330000     -71.81380000
S      -48.28870000     -32.31250000     -68.78990000
C      -42.49700000     -32.70760000     -70.15080000
H      -41.63570000     -32.67950000     -69.45370000
H      -43.32030000     -32.01460000     -69.88900000
C      -46.94780000     -33.55280000     -68.22170000
H      -47.51980000     -34.45630000     -68.14030000
H      -46.56050000     -33.17460000     -67.28640000
C      -45.72480000     -33.88200000     -69.09330000
H      -45.19650000     -32.96670000     -69.25840000
H      -44.94930000     -34.45050000     -68.42300000
C      -42.76090000     -34.21150000     -70.23270000
H      -43.04680000     -34.63930000     -69.32270000
H      -41.72910000     -34.60470000     -70.25030000
C      -43.56890000     -34.84700000     -71.34570000
C      -43.02750000     -35.28120000     -72.50880000
C      -44.98690000     -35.00730000     -71.36690000
H      -41.94170000     -35.24850000     -72.68710000
C      -45.48350000     -35.54970000     -72.53180000
C      -45.99520000     -34.61850000     -70.37790000
C      -47.28010000     -34.96520000     -70.77710000
S      -44.21190000     -35.97970000     -73.58100000
S      -47.27530000     -35.60450000     -72.46300000
H      -48.24440000     -34.61260000     -70.27280000
