40
Properties=species:S:1:pos:R:3 #=T CELL(abcABC):=T 1.889726e+02=T 90.00000=T Traj:=T positionsangstrom=T Step:=T 0=T Bead:=T pbc="F F F"
C      -45.92150000     -35.89100000     -70.82430000
C      -45.15270000     -35.57260000     -69.65890000
C      -45.63630000     -34.53100000     -68.83000000
C      -46.77640000     -33.77390000     -69.24900000
C      -47.31690000     -33.96130000     -70.51940000
C      -47.03420000     -35.19240000     -71.23730000
H      -45.51430000     -36.70750000     -71.42080000
H      -45.25330000     -34.33310000     -67.78670000
H      -48.11330000     -33.27450000     -70.80990000
H      -47.40580000     -35.38580000     -72.18400000
C      -47.20840000     -32.62290000     -68.47090000
H      -46.45020000     -32.24990000     -67.83040000
H      -48.03370000     -32.87870000     -67.81400000
C      -44.00560000     -36.39780000     -69.11220000
H      -44.12190000     -36.50750000     -68.07250000
H      -43.95870000     -37.37400000     -69.67680000
S      -47.74720000     -31.19010000     -69.49560000
S      -42.47850000     -35.34580000     -69.21410000
C      -46.00730000     -30.37590000     -69.67710000
H      -46.25620000     -29.43900000     -70.25630000
H      -45.61340000     -30.23540000     -68.67950000
C      -42.58970000     -35.14940000     -71.10950000
H      -43.44250000     -35.70240000     -71.38320000
H      -41.73560000     -35.65890000     -71.65000000
C      -42.74060000     -33.67410000     -71.39140000
H      -43.30790000     -33.24630000     -70.60980000
H      -41.77050000     -33.10790000     -71.40050000
C      -45.01500000     -31.26750000     -70.53360000
H      -44.87250000     -32.22120000     -69.98450000
H      -43.95480000     -30.80400000     -70.60800000
C      -45.36840000     -31.57380000     -71.93350000
C      -46.56050000     -31.13220000     -72.48790000
C      -44.77100000     -32.61320000     -72.69320000
H      -47.17760000     -30.30220000     -72.21790000
C      -45.42450000     -32.72550000     -73.88890000
C      -43.56500000     -33.44490000     -72.64430000
C      -43.36600000     -34.18700000     -73.79240000
S      -46.88180000     -31.80120000     -74.07900000
S      -44.71080000     -33.88060000     -74.93370000
H      -42.51820000     -34.76090000     -74.10440000
