40
Properties=species:S:1:pos:R:3 #=T CELL(abcABC):=T 1.889726e+02=T 90.00000=T Traj:=T positionsangstrom=T Step:=T 0=T Bead:=T pbc="F F F"
C      -45.76430000     -35.85500000     -70.82840000
C      -45.21610000     -35.61720000     -69.54990000
C      -45.71940000     -34.58200000     -68.81920000
C      -46.80120000     -33.76960000     -69.32550000
C      -47.28480000     -33.98520000     -70.59200000
C      -46.75090000     -35.03430000     -71.33460000
H      -45.32880000     -36.66230000     -71.47580000
H      -45.35550000     -34.25310000     -67.76430000
H      -48.02690000     -33.25810000     -70.86300000
H      -47.15200000     -35.10570000     -72.34510000
C      -47.18200000     -32.56910000     -68.51080000
H      -46.38250000     -32.37200000     -67.78360000
H      -48.06520000     -32.69520000     -67.83530000
C      -44.09000000     -36.45900000     -69.09040000
H      -44.17680000     -36.86000000     -68.08150000
H      -44.09770000     -37.39890000     -69.64880000
S      -47.59660000     -30.93210000     -69.42990000
S      -42.48290000     -35.65880000     -69.21650000
C      -46.02920000     -30.23150000     -69.80410000
H      -46.29010000     -29.30980000     -70.30860000
H      -45.53730000     -29.86820000     -68.85900000
C      -42.32390000     -35.03080000     -70.94130000
H      -42.72510000     -35.75700000     -71.61610000
H      -41.21810000     -35.05360000     -71.06500000
C      -42.96950000     -33.64940000     -71.31420000
H      -43.57090000     -33.30270000     -70.50620000
H      -42.10200000     -32.90450000     -71.42200000
C      -44.97900000     -31.13290000     -70.58060000
H      -44.59870000     -31.94620000     -69.96410000
H      -44.09640000     -30.54250000     -70.75220000
C      -45.43940000     -31.65830000     -71.87970000
C      -46.58150000     -31.11680000     -72.46860000
C      -44.89080000     -32.72250000     -72.71140000
H      -47.17690000     -30.35360000     -72.08800000
C      -45.52510000     -32.78600000     -73.94430000
C      -43.71930000     -33.61540000     -72.62270000
C      -43.61360000     -34.46240000     -73.70700000
S      -46.90060000     -31.69870000     -74.08970000
S      -44.70200000     -33.89860000     -75.00300000
H      -42.93140000     -35.20770000     -73.93090000
