40
Properties=species:S:1:pos:R:3 #=T CELL(abcABC):=T 1.889726e+02=T 90.00000=T Traj:=T positionsangstrom=T Step:=T 0=T Bead:=T pbc="F F F"
C      -45.86840000     -35.91070000     -70.84490000
C      -45.19980000     -35.59710000     -69.67980000
C      -45.70220000     -34.48370000     -68.90300000
C      -46.75800000     -33.70890000     -69.39680000
C      -47.28960000     -33.95610000     -70.70530000
C      -46.81130000     -35.02790000     -71.43120000
H      -45.60970000     -36.83830000     -71.35180000
H      -45.16570000     -34.09930000     -67.98540000
H      -47.95270000     -33.20310000     -71.09010000
H      -47.26630000     -35.18220000     -72.42760000
C      -47.39650000     -32.50490000     -68.60070000
H      -46.90520000     -32.54270000     -67.61390000
H      -48.44790000     -32.72070000     -68.50830000
C      -44.05620000     -36.42470000     -69.08440000
H      -44.16930000     -36.57680000     -67.92900000
H      -44.07320000     -37.39360000     -69.56860000
S      -47.51360000     -30.88200000     -69.33930000
S      -42.36180000     -35.78580000     -69.31540000
C      -45.86610000     -30.17550000     -69.59450000
H      -45.86970000     -29.14380000     -69.85430000
H      -45.22290000     -30.26380000     -68.63370000
C      -42.22080000     -35.11610000     -70.96990000
H      -42.49340000     -35.93700000     -71.69800000
H      -41.23660000     -34.86570000     -71.13620000
C      -43.10300000     -33.83740000     -71.13200000
H      -43.93690000     -33.81470000     -70.36560000
H      -42.56900000     -32.97720000     -70.89990000
C      -45.05310000     -31.11300000     -70.57910000
H      -44.87150000     -32.00650000     -69.94820000
H      -44.05380000     -30.70190000     -70.71380000
C      -45.55980000     -31.54270000     -71.91810000
C      -46.52050000     -30.88720000     -72.67450000
C      -44.90630000     -32.60370000     -72.68100000
H      -47.12560000     -30.06750000     -72.35470000
C      -45.54600000     -32.77260000     -73.90230000
C      -43.79510000     -33.64530000     -72.46300000
C      -43.66950000     -34.42150000     -73.56020000
S      -46.84750000     -31.63950000     -74.22090000
S      -44.75620000     -34.06260000     -74.84460000
H      -43.05420000     -35.26650000     -73.68580000
