40
Properties=species:S:1:pos:R:3 #=T CELL(abcABC):=T 1.889726e+02=T 90.00000=T Traj:=T positionsangstrom=T Step:=T 0=T Bead:=T pbc="F F F"
C      -46.29350000     -30.47340000     -68.08860000
C      -46.02260000     -30.27670000     -69.46410000
C      -46.84940000     -30.82480000     -70.42110000
C      -47.76490000     -31.82610000     -70.04450000
C      -47.82270000     -32.23480000     -68.73240000
C      -47.16930000     -31.46040000     -67.73100000
H      -45.73680000     -29.88340000     -67.28400000
H      -46.82820000     -30.55680000     -71.49420000
H      -48.57230000     -33.02710000     -68.56040000
H      -47.45710000     -31.65080000     -66.69670000
C      -48.74180000     -32.37860000     -71.09760000
H      -48.30510000     -32.31490000     -72.09660000
H      -49.66710000     -31.80030000     -71.20800000
C      -44.77640000     -29.45060000     -69.85300000
H      -44.82570000     -29.22330000     -70.89460000
H      -44.60510000     -28.45620000     -69.38800000
S      -49.27010000     -34.09000000     -70.71660000
S      -43.27550000     -30.51080000     -69.39530000
C      -48.09020000     -35.11610000     -71.68730000
H      -48.33650000     -36.20280000     -71.48040000
H      -48.38490000     -34.91140000     -72.72520000
C      -43.02670000     -31.73420000     -70.87550000
H      -41.93800000     -31.86630000     -70.81000000
H      -43.36010000     -31.15670000     -71.76440000
C      -43.64860000     -33.11230000     -70.63670000
H      -43.24080000     -33.69240000     -69.71720000
H      -44.77590000     -33.10220000     -70.57520000
C      -46.55710000     -34.82390000     -71.51300000
H      -46.21520000     -35.36890000     -70.60840000
H      -46.34920000     -33.78960000     -71.33400000
C      -45.57110000     -35.30560000     -72.62480000
C      -45.91180000     -36.22890000     -73.58400000
C      -44.16530000     -34.83730000     -72.65050000
H      -46.93310000     -36.51780000     -73.88790000
C      -43.45470000     -35.59730000     -73.55500000
C      -43.24890000     -34.01610000     -71.78290000
C      -41.96430000     -34.09600000     -72.25690000
S      -44.50310000     -36.77400000     -74.45400000
S      -41.75130000     -35.23550000     -73.52070000
H      -41.12740000     -33.57590000     -71.71540000
