40
Properties=species:S:1:pos:R:3 #=T CELL(abcABC):=T 1.889726e+02=T 90.00000=T Traj:=T positionsangstrom=T Step:=T 0=T Bead:=T pbc="F F F"
C      -46.17580000     -30.57460000     -68.02600000
C      -45.96280000     -30.36140000     -69.42990000
C      -46.80510000     -31.00590000     -70.33950000
C      -47.93460000     -31.74540000     -69.96310000
C      -48.21330000     -31.81310000     -68.55780000
C      -47.35330000     -31.24320000     -67.63340000
H      -45.50420000     -30.23640000     -67.22940000
H      -46.72880000     -30.85450000     -71.41140000
H      -49.10410000     -32.40660000     -68.23850000
H      -47.53540000     -31.32240000     -66.57280000
C      -48.75600000     -32.33340000     -71.02590000
H      -48.25950000     -32.24770000     -72.04350000
H      -49.73820000     -31.76790000     -71.12410000
C      -44.75140000     -29.60550000     -69.93810000
H      -44.58740000     -29.36200000     -71.06450000
H      -44.64420000     -28.65210000     -69.40220000
S      -49.11010000     -34.20590000     -70.71060000
S      -43.19340000     -30.50970000     -69.43850000
C      -47.98440000     -35.13280000     -71.85800000
H      -48.12760000     -36.24170000     -71.68980000
H      -48.28330000     -34.95750000     -72.84930000
C      -42.85750000     -31.71300000     -70.76030000
H      -41.81140000     -32.01140000     -70.90120000
H      -43.18550000     -31.30080000     -71.67280000
C      -43.66080000     -33.12590000     -70.66260000
H      -43.65730000     -33.44020000     -69.62420000
H      -44.60870000     -32.97580000     -71.04500000
C      -46.56250000     -34.70700000     -71.61360000
H      -46.32760000     -34.98570000     -70.58950000
H      -46.57650000     -33.59260000     -71.56580000
C      -45.57070000     -35.31800000     -72.55050000
C      -45.94700000     -36.12760000     -73.58220000
C      -44.14140000     -34.88000000     -72.52990000
H      -46.91200000     -36.58070000     -73.65050000
C      -43.51310000     -35.59370000     -73.54630000
C      -43.20630000     -34.17380000     -71.71500000
C      -41.90220000     -34.24530000     -72.23550000
S      -44.57150000     -36.50630000     -74.59450000
S      -41.84480000     -35.43150000     -73.57600000
H      -41.00210000     -33.90780000     -71.67420000
