40
Properties=species:S:1:pos:R:3 #=T CELL(abcABC):=T 1.889726e+02=T 90.00000=T Traj:=T positionsangstrom=T Step:=T 0=T Bead:=T pbc="F F F"
C      -46.26130000     -30.46740000     -68.06300000
C      -45.99420000     -30.59600000     -69.41510000
C      -47.02610000     -31.20590000     -70.22910000
C      -48.27630000     -31.64810000     -69.67600000
C      -48.53190000     -31.39030000     -68.32520000
C      -47.47510000     -30.86380000     -67.51820000
H      -45.49780000     -30.21330000     -67.37460000
H      -46.83260000     -31.21740000     -71.27880000
H      -49.46440000     -31.53650000     -67.78400000
H      -47.62540000     -30.64950000     -66.44850000
C      -49.29970000     -32.34080000     -70.61700000
H      -49.38040000     -32.01870000     -71.67580000
H      -50.36000000     -32.18770000     -70.26030000
C      -44.74280000     -30.04350000     -70.08210000
H      -44.80710000     -30.17090000     -71.22590000
H      -44.73890000     -28.88900000     -70.02030000
S      -49.05720000     -34.18720000     -70.64810000
S      -43.16360000     -30.74680000     -69.41070000
C      -48.01590000     -34.56190000     -72.11670000
H      -48.20880000     -35.59280000     -72.39230000
H      -48.45700000     -34.01570000     -72.98940000
C      -42.70160000     -31.97240000     -70.80190000
H      -41.66430000     -31.95930000     -70.73440000
H      -43.15470000     -31.59600000     -71.76940000
C      -43.28950000     -33.40260000     -70.51930000
H      -42.94840000     -33.94440000     -69.61910000
H      -44.34810000     -33.21950000     -70.24160000
C      -46.52380000     -34.35200000     -71.84060000
H      -46.31210000     -34.73750000     -70.83100000
H      -46.38040000     -33.30890000     -71.82220000
C      -45.52610000     -34.99510000     -72.76600000
C      -45.91400000     -35.76820000     -73.80650000
C      -44.04210000     -34.90610000     -72.64040000
H      -46.90120000     -35.89790000     -74.22880000
C      -43.42200000     -35.61050000     -73.62940000
C      -43.07610000     -34.32850000     -71.70720000
C      -41.76250000     -34.60330000     -72.14540000
S      -44.54490000     -36.33900000     -74.74690000
S      -41.69440000     -35.66460000     -73.53470000
H      -40.82850000     -34.31390000     -71.80680000
