40
Properties=species:S:1:pos:R:3 #=T CELL(abcABC):=T 1.889726e+02=T 90.00000=T Traj:=T positionsangstrom=T Step:=T 0=T Bead:=T pbc="F F F"
C      -46.32060000     -30.24070000     -68.09030000
C      -46.18010000     -30.54960000     -69.51840000
C      -47.22660000     -31.20330000     -70.16070000
C      -48.38820000     -31.64480000     -69.55360000
C      -48.46430000     -31.44720000     -68.14990000
C      -47.45660000     -30.75710000     -67.47450000
H      -45.60320000     -29.68760000     -67.52710000
H      -47.18880000     -31.21560000     -71.27480000
H      -49.27770000     -31.85340000     -67.55930000
H      -47.59890000     -30.51610000     -66.41110000
C      -49.35820000     -32.40610000     -70.43640000
H      -49.54820000     -32.05370000     -71.42190000
H      -50.34640000     -32.55080000     -69.94160000
C      -45.05180000     -29.99320000     -70.23510000
H      -45.17570000     -30.29080000     -71.33890000
H      -45.03920000     -28.92230000     -70.24580000
S      -48.84120000     -34.21120000     -70.62440000
S      -43.42630000     -30.77130000     -69.71680000
C      -47.74430000     -34.21950000     -72.13150000
H      -47.73910000     -35.24560000     -72.51270000
H      -48.17720000     -33.69170000     -72.99950000
C      -43.29600000     -32.14420000     -70.98670000
H      -42.43370000     -32.07810000     -71.62320000
H      -44.21010000     -31.92760000     -71.50280000
C      -43.24900000     -33.58260000     -70.41220000
H      -42.60110000     -33.64770000     -69.55070000
H      -44.21750000     -33.72980000     -69.95260000
C      -46.26340000     -33.96550000     -71.86230000
H      -46.04160000     -34.41190000     -70.82320000
H      -46.05700000     -32.85860000     -71.81180000
C      -45.32050000     -34.63890000     -72.88890000
C      -45.70380000     -35.12600000     -74.10590000
C      -43.94890000     -34.93540000     -72.60960000
H      -46.68500000     -34.94430000     -74.53750000
C      -43.28470000     -35.76560000     -73.61580000
C      -43.03120000     -34.61440000     -71.56470000
C      -41.76250000     -35.19320000     -71.76730000
S      -44.44580000     -36.05230000     -74.92390000
S      -41.65670000     -36.15660000     -73.21020000
H      -40.81760000     -35.26350000     -71.17370000
