40
Properties=species:S:1:pos:R:3 #=T CELL(abcABC):=T 1.889726e+02=T 90.00000=T Traj:=T positionsangstrom=T Step:=T 0=T Bead:=T pbc="F F F"
C      -48.00010000     -32.09650000     -69.75950000
C      -48.36440000     -32.58930000     -71.01130000
C      -48.62540000     -33.94410000     -71.13680000
C      -48.14540000     -34.81640000     -70.14270000
C      -47.68560000     -34.31080000     -68.98260000
C      -47.53020000     -32.93370000     -68.77330000
H      -47.91650000     -30.99510000     -69.73540000
H      -48.93470000     -34.45670000     -72.03430000
H      -47.27260000     -35.11440000     -68.34210000
H      -47.18500000     -32.66910000     -67.78720000
C      -48.22560000     -36.31980000     -70.34030000
H      -48.94530000     -36.74710000     -71.00800000
H      -48.53180000     -36.83650000     -69.40010000
C      -48.71830000     -31.58440000     -72.09900000
H      -49.79880000     -31.81110000     -72.30690000
H      -48.65370000     -30.63060000     -71.77200000
S      -46.58110000     -36.96360000     -70.96810000
S      -47.94280000     -31.92960000     -73.77650000
C      -45.23940000     -35.71760000     -70.51860000
H      -45.72440000     -34.75680000     -70.28910000
H      -44.73380000     -36.12330000     -69.59200000
C      -46.22010000     -31.37610000     -73.38100000
H      -46.16820000     -30.56980000     -72.62460000
H      -45.71120000     -30.90000000     -74.32500000
C      -45.35230000     -32.53940000     -72.82210000
H      -46.00060000     -33.11360000     -72.09970000
H      -45.12920000     -33.25740000     -73.61680000
C      -44.22430000     -35.48760000     -71.62530000
H      -44.62600000     -35.07580000     -72.52060000
H      -43.65130000     -36.41510000     -71.88840000
C      -43.14440000     -34.44260000     -71.20260000
C      -41.91490000     -34.88960000     -70.76650000
C      -43.20710000     -33.04490000     -71.46860000
H      -41.72790000     -35.87970000     -70.40490000
C      -42.04300000     -32.41130000     -71.07590000
C      -44.11600000     -32.15500000     -72.11490000
C      -43.66250000     -30.91430000     -72.24900000
S      -40.75900000     -33.52580000     -70.51160000
S      -42.00590000     -30.70160000     -71.43540000
H      -44.22200000     -30.05740000     -72.65820000
