40
Properties=species:S:1:pos:R:3 #=T CELL(abcABC):=T 1.889726e+02=T 90.00000=T Traj:=T positionsangstrom=T Step:=T 0=T Bead:=T pbc="F F F"
C      -48.59750000     -31.99330000     -69.77390000
C      -48.53350000     -32.61530000     -71.06520000
C      -48.38150000     -33.95490000     -71.11500000
C      -48.04190000     -34.68180000     -69.99110000
C      -47.97030000     -34.03340000     -68.77690000
C      -48.29180000     -32.67790000     -68.62420000
H      -48.70710000     -30.89340000     -69.77180000
H      -48.25370000     -34.47080000     -72.04370000
H      -47.73310000     -34.63000000     -67.88400000
H      -48.26320000     -32.11990000     -67.68540000
C      -47.90540000     -36.21730000     -70.07970000
H      -48.83250000     -36.53810000     -70.64030000
H      -47.91680000     -36.58090000     -69.07070000
C      -48.97160000     -31.69150000     -72.28900000
H      -49.98200000     -31.87380000     -72.46760000
H      -48.87250000     -30.63690000     -71.93010000
S      -46.37250000     -36.86270000     -71.14600000
S      -47.94760000     -31.94460000     -73.75080000
C      -45.10510000     -35.63790000     -70.53010000
H      -45.53410000     -34.58930000     -70.42480000
H      -44.80800000     -36.09080000     -69.57660000
C      -46.27430000     -31.53770000     -73.16660000
H      -46.27710000     -30.87880000     -72.19600000
H      -45.67310000     -31.00410000     -73.92620000
C      -45.35100000     -32.78170000     -72.76620000
H      -45.78670000     -33.25700000     -71.93910000
H      -45.53310000     -33.41640000     -73.64270000
C      -44.02960000     -35.64050000     -71.58220000
H      -44.47980000     -35.37130000     -72.64370000
H      -43.66800000     -36.64150000     -71.81730000
C      -42.97500000     -34.55820000     -71.22720000
C      -41.86130000     -34.82080000     -70.41030000
C      -43.04750000     -33.20020000     -71.69450000
H      -41.51330000     -35.77320000     -70.03330000
C      -41.91010000     -32.50410000     -71.25900000
C      -43.97380000     -32.36470000     -72.43470000
C      -43.51730000     -31.05680000     -72.40080000
S      -40.89180000     -33.35050000     -70.20700000
S      -41.92880000     -30.82830000     -71.75320000
H      -43.99850000     -30.22140000     -72.82920000
