40
Properties=species:S:1:pos:R:3 #=T CELL(abcABC):=T 1.889726e+02=T 90.00000=T Traj:=T positionsangstrom=T Step:=T 0=T Bead:=T pbc="F F F"
C      -47.21000000     -35.49630000     -69.40830000
C      -48.05100000     -34.88560000     -70.36870000
C      -48.36320000     -33.54630000     -70.21700000
C      -47.82520000     -32.77240000     -69.16740000
C      -46.89580000     -33.36950000     -68.26650000
C      -46.62020000     -34.70380000     -68.42790000
H      -46.98780000     -36.52750000     -69.47080000
H      -49.11800000     -33.08210000     -70.89050000
H      -46.67650000     -32.84900000     -67.35060000
H      -45.82460000     -35.17500000     -67.81450000
C      -48.27700000     -31.37480000     -69.16550000
H      -47.93510000     -30.80530000     -68.25950000
H      -49.39730000     -31.29120000     -69.23070000
C      -48.49090000     -35.59020000     -71.59000000
H      -48.23620000     -36.63380000     -71.56570000
H      -49.60590000     -35.40780000     -71.82330000
S      -47.77050000     -30.54260000     -70.83190000
S      -47.73180000     -34.86850000     -73.16550000
C      -45.89900000     -30.71520000     -70.72420000
H      -45.34470000     -29.82270000     -71.02270000
H      -45.74440000     -30.90100000     -69.69990000
C      -45.93350000     -35.36270000     -72.82450000
H      -45.78720000     -36.45150000     -72.78540000
H      -45.83280000     -34.95340000     -71.82730000
C      -45.00540000     -34.58980000     -73.74090000
H      -44.71360000     -35.14920000     -74.66870000
H      -45.36710000     -33.57540000     -73.99040000
C      -45.45900000     -31.98430000     -71.60900000
H      -45.67120000     -31.76910000     -72.72650000
H      -46.12410000     -32.86710000     -71.34420000
C      -44.01400000     -32.32310000     -71.47230000
C      -43.24760000     -31.69520000     -70.51510000
C      -43.26750000     -33.40740000     -72.17230000
H      -43.57790000     -30.84700000     -69.85310000
C      -41.97070000     -33.46500000     -71.67070000
C      -43.57460000     -34.39080000     -73.20430000
C      -42.39440000     -34.94070000     -73.62840000
S      -41.58950000     -32.19470000     -70.58050000
S      -40.94240000     -34.42580000     -72.71830000
H      -42.15080000     -35.72510000     -74.30650000
