40
Properties=species:S:1:pos:R:3 #=T CELL(abcABC):=T 1.889726e+02=T 90.00000=T Traj:=T positionsangstrom=T Step:=T 0=T Bead:=T pbc="F F F"
C      -48.93430000     -31.91320000     -69.79550000
C      -48.90350000     -32.65830000     -71.01910000
C      -48.69790000     -34.02210000     -70.97380000
C      -48.31620000     -34.64540000     -69.75700000
C      -48.39590000     -33.88480000     -68.63910000
C      -48.81250000     -32.55990000     -68.60290000
H      -49.09600000     -30.81890000     -69.90170000
H      -48.63180000     -34.58960000     -71.88560000
H      -48.13260000     -34.30050000     -67.69020000
H      -48.91260000     -32.07130000     -67.59090000
C      -47.82350000     -36.07790000     -69.73080000
H      -48.63650000     -36.76970000     -69.98530000
H      -47.56530000     -36.25600000     -68.69620000
C      -49.01850000     -31.94020000     -72.32880000
H      -49.97570000     -31.90600000     -72.79370000
H      -48.68150000     -30.92080000     -72.14120000
S      -46.51140000     -36.56530000     -70.97830000
S      -47.82050000     -32.64370000     -73.59830000
C      -45.03640000     -35.57970000     -70.42200000
H      -45.46050000     -34.59230000     -70.19340000
H      -44.67950000     -35.99240000     -69.48670000
C      -46.27860000     -31.75740000     -72.95240000
H      -46.49290000     -31.36810000     -71.94080000
H      -46.09550000     -30.94530000     -73.58810000
C      -45.21660000     -32.77730000     -72.77590000
H      -45.42130000     -33.39260000     -71.91420000
H      -45.04780000     -33.36210000     -73.70950000
C      -43.97240000     -35.51610000     -71.49770000
H      -44.40690000     -35.19790000     -72.47890000
H      -43.58030000     -36.53690000     -71.68770000
C      -42.87450000     -34.47160000     -71.26550000
C      -41.69790000     -34.72460000     -70.64130000
C      -42.87980000     -33.08700000     -71.75120000
H      -41.38330000     -35.70020000     -70.25360000
C      -41.75910000     -32.39730000     -71.52010000
C      -43.84870000     -32.24360000     -72.38210000
C      -43.46020000     -30.96530000     -72.54720000
S      -40.57340000     -33.36560000     -70.59920000
S      -41.78090000     -30.69640000     -71.94890000
H      -43.93960000     -30.09390000     -73.02620000
