40
Properties=species:S:1:pos:R:3 #=T CELL(abcABC):=T 1.889726e+02=T 90.00000=T Traj:=T positionsangstrom=T Step:=T 0=T Bead:=T pbc="F F F"
C      -47.05580000     -31.88390000     -71.58530000
C      -46.33940000     -31.19200000     -70.65290000
C      -45.04460000     -30.64920000     -70.88640000
C      -44.52030000     -30.82900000     -72.17190000
C      -45.17890000     -31.65950000     -73.07570000
C      -46.49400000     -32.10640000     -72.82880000
H      -48.03790000     -32.26210000     -71.33260000
H      -44.56940000     -30.10780000     -70.07410000
H      -44.85440000     -31.80000000     -74.04290000
H      -46.98530000     -32.75450000     -73.49840000
C      -43.16900000     -30.37360000     -72.47190000
H      -42.74280000     -29.62510000     -71.78660000
H      -43.02430000     -30.02070000     -73.45990000
C      -46.96330000     -30.84820000     -69.30430000
H      -46.18870000     -30.35780000     -68.64020000
H      -47.77090000     -30.19830000     -69.46200000
S      -42.03950000     -31.86520000     -72.43550000
S      -47.79310000     -32.33480000     -68.52180000
C      -42.50660000     -32.79440000     -70.87820000
H      -41.90550000     -32.48210000     -70.03930000
H      -43.55470000     -32.53400000     -70.67490000
C      -46.48480000     -33.36380000     -67.93230000
H      -46.84600000     -34.30370000     -67.50100000
H      -45.93960000     -32.82890000     -67.11830000
C      -45.50790000     -33.80720000     -69.05040000
H      -44.81580000     -33.07730000     -69.46820000
H      -44.77490000     -34.36540000     -68.48620000
C      -42.49810000     -34.29050000     -70.97480000
H      -42.34110000     -34.56040000     -69.88050000
H      -41.60990000     -34.67090000     -71.42360000
C      -43.72380000     -34.93340000     -71.69940000
C      -43.50500000     -35.49700000     -72.96350000
C      -45.13990000     -35.06340000     -71.31720000
H      -42.63470000     -35.39700000     -73.63720000
C      -45.90210000     -35.74320000     -72.27650000
C      -45.96610000     -34.72110000     -70.18640000
C      -47.28820000     -35.17320000     -70.36810000
S      -44.97020000     -36.06970000     -73.78210000
S      -47.54480000     -35.94510000     -71.90350000
H      -48.03780000     -34.79750000     -69.67940000
