40
Properties=species:S:1:pos:R:3 #=T CELL(abcABC):=T 1.889726e+02=T 90.00000=T Traj:=T positionsangstrom=T Step:=T 0=T Bead:=T pbc="F F F"
C      -47.05390000     -35.43230000     -69.44300000
C      -47.98780000     -34.95470000     -70.38480000
C      -48.35500000     -33.57570000     -70.32090000
C      -47.84680000     -32.79980000     -69.25840000
C      -47.02800000     -33.41120000     -68.25550000
C      -46.52860000     -34.73920000     -68.35900000
H      -46.71600000     -36.45250000     -69.71600000
H      -48.82220000     -33.06350000     -71.19340000
H      -46.55750000     -32.69840000     -67.59310000
H      -45.82190000     -35.13550000     -67.70600000
C      -48.13670000     -31.26790000     -69.16970000
H      -47.38060000     -30.89010000     -68.51700000
H      -49.04290000     -30.96450000     -68.81150000
C      -48.36900000     -35.72090000     -71.61200000
H      -47.83350000     -36.64640000     -71.61040000
H      -49.42990000     -35.99660000     -71.68490000
S      -47.80190000     -30.38360000     -70.85480000
S      -47.66960000     -34.87930000     -73.16940000
C      -45.97900000     -30.59180000     -71.09340000
H      -45.58830000     -29.73330000     -71.79190000
H      -45.55630000     -30.27150000     -70.14100000
C      -45.88900000     -35.20070000     -72.87460000
H      -45.64090000     -36.25980000     -72.98070000
H      -45.51550000     -34.96060000     -71.84770000
C      -44.96800000     -34.34710000     -73.78360000
H      -44.93700000     -34.83670000     -74.75780000
H      -45.50290000     -33.43220000     -74.04430000
C      -45.44630000     -32.01430000     -71.57640000
H      -45.77930000     -32.19450000     -72.55290000
H      -45.90090000     -32.81520000     -71.01330000
C      -43.94040000     -32.23960000     -71.41460000
C      -43.14760000     -31.69880000     -70.40260000
C      -43.24720000     -33.20020000     -72.20050000
H      -43.47510000     -30.94940000     -69.67310000
C      -41.95840000     -33.37690000     -71.85010000
C      -43.61950000     -34.14490000     -73.20660000
C      -42.68600000     -35.07100000     -73.46980000
S      -41.56100000     -32.35880000     -70.44320000
S      -41.18390000     -34.73960000     -72.60380000
H      -42.51440000     -35.88410000     -74.15720000
