40
Properties=species:S:1:pos:R:3 #=T CELL(abcABC):=T 1.889726e+02=T 90.00000=T Traj:=T positionsangstrom=T Step:=T 0=T Bead:=T pbc="F F F"
C      -47.15600000     -31.91230000     -71.97090000
C      -46.43370000     -31.29230000     -70.96710000
C      -45.09960000     -30.91880000     -71.15170000
C      -44.57450000     -31.14310000     -72.43170000
C      -45.30470000     -31.70140000     -73.50850000
C      -46.58680000     -32.11220000     -73.24620000
H      -48.24460000     -32.19880000     -71.85010000
H      -44.53540000     -30.48640000     -70.43930000
H      -44.78470000     -31.88450000     -74.45040000
H      -47.25170000     -32.70610000     -73.92820000
C      -43.11950000     -30.70850000     -72.62530000
H      -42.94590000     -29.85900000     -72.01880000
H      -42.82280000     -30.27810000     -73.58650000
C      -47.19470000     -31.00960000     -69.66460000
H      -46.50690000     -30.43760000     -69.03550000
H      -48.01330000     -30.41500000     -69.83990000
S      -41.75230000     -31.98930000     -72.38660000
S      -47.86190000     -32.56170000     -68.79350000
C      -42.21590000     -32.77800000     -70.65110000
H      -41.44880000     -32.65320000     -69.85680000
H      -43.18780000     -32.26430000     -70.31010000
C      -46.50450000     -33.28760000     -67.82720000
H      -47.14250000     -33.95000000     -67.25990000
H      -46.01190000     -32.62030000     -67.04590000
C      -45.44500000     -34.04030000     -68.68020000
H      -44.73320000     -33.22320000     -68.94890000
H      -44.77700000     -34.65130000     -68.02260000
C      -42.51070000     -34.25790000     -70.80660000
H      -42.58630000     -34.60750000     -69.81660000
H      -41.65520000     -34.81010000     -71.10400000
C      -43.74810000     -34.63280000     -71.59980000
C      -43.60690000     -34.92210000     -72.93090000
C      -45.13480000     -34.89870000     -71.05270000
H      -42.68570000     -34.70560000     -73.47600000
C      -45.87850000     -35.49310000     -72.09110000
C      -45.91570000     -34.81580000     -69.85130000
C      -47.20800000     -35.32900000     -70.01990000
S      -45.07440000     -35.61100000     -73.63760000
S      -47.50600000     -35.90540000     -71.65170000
H      -48.00480000     -35.21360000     -69.33750000
