40
Properties=species:S:1:pos:R:3 #=T CELL(abcABC):=T 1.889726e+02=T 90.00000=T Traj:=T positionsangstrom=T Step:=T 0=T Bead:=T pbc="F F F"
C      -47.32310000     -30.82320000     -69.93420000
C      -48.24580000     -31.70820000     -70.58220000
C      -48.45930000     -32.98440000     -70.09390000
C      -47.69480000     -33.45610000     -69.03930000
C      -46.75340000     -32.65250000     -68.48630000
C      -46.57440000     -31.33630000     -68.87740000
H      -47.27320000     -29.76510000     -70.20450000
H      -49.15170000     -33.68450000     -70.61900000
H      -46.20820000     -32.84170000     -67.52620000
H      -46.00080000     -30.64010000     -68.29860000
C      -47.72520000     -34.90240000     -68.53580000
H      -48.76920000     -35.20310000     -68.24650000
H      -47.21430000     -34.98030000     -67.60520000
C      -48.93720000     -31.29330000     -71.85200000
H      -50.01050000     -31.57760000     -71.56770000
H      -48.85000000     -30.23410000     -72.09940000
S      -47.05250000     -36.12900000     -69.80790000
S      -48.31430000     -32.20750000     -73.39190000
C      -45.49810000     -35.22940000     -70.17340000
H      -45.75770000     -34.21670000     -70.26650000
H      -44.94460000     -35.31850000     -69.21040000
C      -46.47370000     -31.86880000     -73.28740000
H      -46.22940000     -30.85690000     -73.07480000
H      -46.18300000     -32.00320000     -74.34320000
C      -45.71640000     -32.86520000     -72.43130000
H      -46.04110000     -32.81880000     -71.37200000
H      -45.97840000     -33.79090000     -72.89360000
C      -44.74520000     -35.83180000     -71.34890000
H      -45.41790000     -35.72340000     -72.23480000
H      -44.59710000     -36.98140000     -71.21890000
C      -43.38990000     -35.18820000     -71.69310000
C      -42.14710000     -35.74520000     -71.39030000
C      -43.31020000     -33.85920000     -72.12400000
H      -41.98960000     -36.56910000     -70.70960000
C      -41.97150000     -33.46930000     -72.22110000
C      -44.18580000     -32.76470000     -72.47130000
C      -43.48690000     -31.69720000     -72.99610000
S      -40.87580000     -34.72290000     -71.78960000
S      -41.72320000     -31.75310000     -72.66030000
H      -44.00060000     -30.82830000     -73.46220000
