40
Properties=species:S:1:pos:R:3 #=T CELL(abcABC):=T 1.889726e+02=T 90.00000=T Traj:=T positionsangstrom=T Step:=T 0=T Bead:=T pbc="F F F"
C      -47.33360000     -30.76490000     -70.06850000
C      -48.24940000     -31.66080000     -70.68760000
C      -48.46630000     -32.92140000     -70.08880000
C      -47.71140000     -33.32450000     -69.02830000
C      -46.81580000     -32.40710000     -68.44500000
C      -46.58310000     -31.12760000     -68.94470000
H      -47.07420000     -29.77780000     -70.56240000
H      -49.14170000     -33.57370000     -70.69620000
H      -46.09940000     -32.78030000     -67.68400000
H      -45.77650000     -30.54020000     -68.59930000
C      -47.70520000     -34.80240000     -68.48600000
H      -48.68570000     -35.10950000     -68.19090000
H      -46.98290000     -34.91270000     -67.68450000
C      -48.99240000     -31.32400000     -71.90090000
H      -50.05050000     -31.60440000     -71.90860000
H      -48.95100000     -30.27740000     -72.18140000
S      -47.20730000     -35.94090000     -69.82500000
S      -48.26060000     -32.23670000     -73.33510000
C      -45.36330000     -35.42310000     -70.08930000
H      -45.27150000     -34.29630000     -70.11340000
H      -44.84820000     -35.71420000     -69.17160000
C      -46.46810000     -31.81210000     -73.39520000
H      -46.29690000     -30.81230000     -72.93170000
H      -46.13380000     -31.82360000     -74.45930000
C      -45.73080000     -32.89030000     -72.48910000
H      -46.17510000     -32.85830000     -71.52650000
H      -45.92030000     -33.94180000     -72.81990000
C      -44.68220000     -36.00890000     -71.34720000
H      -45.40210000     -35.92460000     -72.18300000
H      -44.42550000     -37.03160000     -71.08230000
C      -43.39880000     -35.33490000     -71.69620000
C      -42.20240000     -35.95250000     -71.50650000
C      -43.26080000     -33.92990000     -72.10670000
H      -42.13460000     -36.94280000     -71.18160000
C      -41.94150000     -33.51370000     -72.16040000
C      -44.22740000     -32.74170000     -72.26850000
C      -43.48970000     -31.64200000     -72.69340000
S      -40.82050000     -34.74870000     -71.77140000
S      -41.72710000     -31.90500000     -72.73800000
H      -43.84830000     -30.62900000     -72.95760000
