40
Properties=species:S:1:pos:R:3 #=T CELL(abcABC):=T 1.889726e+02=T 90.00000=T Traj:=T positionsangstrom=T Step:=T 0=T Bead:=T pbc="F F F"
C      -47.52480000     -32.07530000     -71.84270000
C      -46.97320000     -31.31450000     -70.80730000
C      -45.68640000     -30.75170000     -70.94020000
C      -44.87750000     -31.08300000     -72.03610000
C      -45.37020000     -31.98130000     -73.00790000
C      -46.66550000     -32.45720000     -72.88020000
H      -48.41880000     -32.63560000     -71.71300000
H      -45.29750000     -30.00980000     -70.14650000
H      -44.79300000     -32.40370000     -73.80150000
H      -47.10130000     -33.13910000     -73.63370000
C      -43.54870000     -30.52580000     -72.28330000
H      -43.18530000     -29.78090000     -71.59540000
H      -43.57220000     -29.90110000     -73.23150000
C      -47.76290000     -30.97990000     -69.60240000
H      -47.40370000     -30.15350000     -68.97460000
H      -48.76340000     -30.62100000     -69.81630000
S      -42.24020000     -31.83830000     -72.44680000
S      -48.00900000     -32.48520000     -68.51290000
C      -42.19230000     -32.58920000     -70.69200000
H      -41.29280000     -32.33350000     -70.16920000
H      -43.03030000     -32.09310000     -70.26810000
C      -46.22890000     -32.99050000     -68.10290000
H      -46.30280000     -33.71670000     -67.20650000
H      -45.74500000     -32.16150000     -67.50120000
C      -45.30860000     -33.51560000     -69.17400000
H      -44.92810000     -32.75150000     -69.85200000
H      -44.38550000     -33.85670000     -68.68650000
C      -42.40930000     -34.13830000     -70.73920000
H      -42.73440000     -34.55170000     -69.73210000
H      -41.49610000     -34.55590000     -71.12260000
C      -43.43630000     -34.72760000     -71.65230000
C      -43.12450000     -35.39670000     -72.81540000
C      -44.85520000     -34.86480000     -71.33750000
H      -42.12660000     -35.39270000     -73.26290000
C      -45.52020000     -35.66760000     -72.29350000
C      -45.74930000     -34.56790000     -70.16630000
C      -46.97940000     -35.04360000     -70.38180000
S      -44.51240000     -36.05380000     -73.68590000
S      -47.18360000     -35.97280000     -71.93990000
H      -47.83230000     -34.85950000     -69.75720000
