40
Properties=species:S:1:pos:R:3 #=T CELL(abcABC):=T 1.889726e+02=T 90.00000=T Traj:=T positionsangstrom=T Step:=T 0=T Bead:=T pbc="F F F"
C      -47.40470000     -31.97390000     -71.69980000
C      -46.58980000     -31.36160000     -70.69870000
C      -45.37100000     -30.75510000     -71.06810000
C      -44.78590000     -30.92410000     -72.35990000
C      -45.63330000     -31.50740000     -73.30970000
C      -46.87270000     -32.02950000     -73.00420000
H      -48.37330000     -32.39040000     -71.46160000
H      -44.76660000     -30.32690000     -70.24660000
H      -45.18240000     -31.69560000     -74.31490000
H      -47.42970000     -32.29020000     -73.85630000
C      -43.39090000     -30.44880000     -72.70300000
H      -43.03940000     -29.63310000     -72.08760000
H      -43.32320000     -30.13830000     -73.75760000
C      -47.11640000     -31.25230000     -69.32700000
H      -46.37510000     -30.87810000     -68.60480000
H      -47.86770000     -30.43050000     -69.35410000
S      -42.04850000     -31.77630000     -72.43980000
S      -47.90600000     -32.66150000     -68.62750000
C      -42.52360000     -32.42500000     -70.75850000
H      -41.83190000     -31.94650000     -69.95590000
H      -43.55540000     -32.17130000     -70.52870000
C      -46.51630000     -33.64010000     -67.93890000
H      -46.95450000     -34.49200000     -67.48050000
H      -46.09920000     -33.15350000     -67.14840000
C      -45.41760000     -34.04280000     -68.87230000
H      -44.77690000     -33.20700000     -69.10460000
H      -44.69060000     -34.67730000     -68.27780000
C      -42.56230000     -33.95490000     -70.65600000
H      -42.72420000     -34.21440000     -69.63040000
H      -41.65560000     -34.30560000     -70.98400000
C      -43.59410000     -34.66810000     -71.51120000
C      -43.23620000     -35.13150000     -72.77430000
C      -44.99060000     -34.99960000     -71.22220000
H      -42.27340000     -34.97990000     -73.27190000
C      -45.60130000     -35.59870000     -72.28460000
C      -45.82800000     -34.78100000     -70.15150000
C      -47.12850000     -35.15350000     -70.37920000
S      -44.62820000     -35.86150000     -73.64890000
S      -47.21640000     -36.02080000     -71.90310000
H      -47.96310000     -35.21320000     -69.76140000
