40
Properties=species:S:1:pos:R:3 #=T CELL(abcABC):=T 1.889726e+02=T 90.00000=T Traj:=T positionsangstrom=T Step:=T 0=T Bead:=T pbc="F F F"
C      -46.66600000     -30.40010000     -69.35310000
C      -47.72140000     -31.05790000     -70.05430000
C      -48.04530000     -32.36780000     -69.73980000
C      -47.45980000     -33.00810000     -68.65420000
C      -46.42500000     -32.36910000     -67.92990000
C      -46.04710000     -31.04700000     -68.24280000
H      -46.20710000     -29.46810000     -69.77850000
H      -48.80430000     -32.89620000     -70.27640000
H      -45.81810000     -32.95340000     -67.17830000
H      -45.25680000     -30.52910000     -67.70000000
C      -47.76860000     -34.41360000     -68.32810000
H      -48.72120000     -34.59580000     -67.99430000
H      -47.16570000     -34.66240000     -67.47620000
C      -48.38890000     -30.41040000     -71.24870000
H      -49.43310000     -30.50800000     -71.13520000
H      -48.12490000     -29.36040000     -71.29760000
S      -47.29840000     -35.72180000     -69.53970000
S      -47.94770000     -31.20110000     -72.85860000
C      -45.53640000     -35.39390000     -69.75590000
H      -45.33080000     -34.33760000     -69.71460000
H      -44.91210000     -35.81170000     -68.86060000
C      -46.18580000     -31.45740000     -72.66540000
H      -45.72170000     -31.16220000     -71.69120000
H      -45.61700000     -30.92820000     -73.34800000
C      -45.93800000     -32.98610000     -72.88940000
H      -46.31840000     -33.49450000     -71.97710000
H      -46.46620000     -33.35770000     -73.83060000
C      -44.98710000     -36.00220000     -71.07880000
H      -45.76610000     -35.79000000     -71.87290000
H      -44.99630000     -37.10010000     -71.03430000
C      -43.67770000     -35.41500000     -71.50120000
C      -42.48370000     -36.05820000     -71.39910000
C      -43.57310000     -34.25980000     -72.35490000
H      -42.36050000     -36.83000000     -70.62850000
C      -42.25690000     -34.08280000     -72.78800000
C      -44.49490000     -33.40300000     -73.07090000
C      -43.83400000     -32.63940000     -74.05050000
S      -41.12270000     -35.24010000     -72.15180000
S      -42.13300000     -33.06420000     -74.15440000
H      -44.22550000     -31.81470000     -74.58940000
