40
Properties=species:S:1:pos:R:3 #=T CELL(abcABC):=T 1.889726e+02=T 90.00000=T Traj:=T positionsangstrom=T Step:=T 0=T Bead:=T pbc="F F F"
C      -47.30110000     -31.82000000     -71.69590000
C      -46.53540000     -31.28570000     -70.65200000
C      -45.19610000     -30.79260000     -70.85850000
C      -44.63370000     -30.88690000     -72.13120000
C      -45.40770000     -31.41460000     -73.14850000
C      -46.72660000     -31.90270000     -72.95230000
H      -48.29210000     -32.22070000     -71.53290000
H      -44.57080000     -30.46170000     -70.05530000
H      -44.94770000     -31.37710000     -74.18540000
H      -47.32670000     -32.44010000     -73.67260000
C      -43.22140000     -30.46580000     -72.44030000
H      -42.90860000     -29.57440000     -71.86470000
H      -43.19990000     -30.19240000     -73.45200000
C      -47.01380000     -31.18360000     -69.18520000
H      -46.21640000     -30.94780000     -68.46630000
H      -47.65110000     -30.30540000     -68.95780000
S      -41.88620000     -31.79230000     -72.39290000
S      -47.93760000     -32.62680000     -68.55170000
C      -42.18000000     -32.74810000     -70.84380000
H      -41.27070000     -32.71700000     -70.17520000
H      -42.91520000     -32.15180000     -70.27780000
C      -46.56760000     -33.82660000     -67.87120000
H      -47.09570000     -34.71690000     -67.38240000
H      -46.22920000     -33.31160000     -66.95160000
C      -45.42700000     -34.15540000     -68.83130000
H      -44.89220000     -33.31140000     -69.11490000
H      -44.71730000     -34.86530000     -68.37610000
C      -42.53550000     -34.19660000     -70.89180000
H      -42.73360000     -34.38970000     -69.83310000
H      -41.66020000     -34.79440000     -71.09400000
C      -43.67200000     -34.60750000     -71.80880000
C      -43.49870000     -34.97510000     -73.13140000
C      -45.05410000     -34.96810000     -71.37180000
H      -42.70930000     -34.50850000     -73.77510000
C      -45.78190000     -35.56280000     -72.34590000
C      -45.85170000     -34.74200000     -70.14960000
C      -47.11630000     -35.24840000     -70.33280000
S      -44.94680000     -35.78370000     -73.87450000
S      -47.39570000     -36.01880000     -71.86040000
H      -47.90500000     -35.39130000     -69.65540000
