40
Properties=species:S:1:pos:R:3 #=T CELL(abcABC):=T 1.889726e+02=T 90.00000=T Traj:=T positionsangstrom=T Step:=T 0=T Bead:=T pbc="F F F"
C      -47.25720000     -31.82610000     -71.75200000
C      -46.56720000     -31.27380000     -70.60810000
C      -45.22150000     -30.86260000     -70.73670000
C      -44.54330000     -30.96750000     -71.94220000
C      -45.25310000     -31.44870000     -73.08270000
C      -46.55810000     -31.94070000     -72.93770000
H      -48.30470000     -31.96590000     -71.74160000
H      -44.80150000     -30.38650000     -69.85990000
H      -44.65510000     -31.65590000     -73.98070000
H      -47.17520000     -32.30040000     -73.75570000
C      -43.12590000     -30.45340000     -72.06200000
H      -42.82090000     -29.91150000     -71.17550000
H      -43.07560000     -29.67380000     -72.90410000
C      -47.32960000     -31.12590000     -69.33130000
H      -46.67260000     -30.54240000     -68.63850000
H      -48.30220000     -30.68200000     -69.59510000
S      -41.95980000     -31.81630000     -72.37940000
S      -47.89130000     -32.77850000     -68.51010000
C      -42.27500000     -32.80750000     -70.82320000
H      -41.47990000     -32.56170000     -70.15350000
H      -43.18590000     -32.46770000     -70.35770000
C      -46.32820000     -33.55450000     -67.92210000
H      -46.46070000     -34.49820000     -67.39040000
H      -45.83600000     -32.93560000     -67.17280000
C      -45.27950000     -33.91960000     -69.02320000
H      -44.85530000     -32.93050000     -69.43130000
H      -44.43080000     -34.36860000     -68.49220000
C      -42.40590000     -34.31510000     -71.16240000
H      -42.23220000     -34.94550000     -70.31620000
H      -41.59560000     -34.55790000     -71.91740000
C      -43.69210000     -34.74570000     -71.88610000
C      -43.56190000     -35.17540000     -73.21780000
C      -45.06910000     -34.93910000     -71.39780000
H      -42.65360000     -35.23800000     -73.82930000
C      -45.90620000     -35.40990000     -72.43500000
C      -45.78670000     -34.73080000     -70.13930000
C      -47.05710000     -35.20220000     -70.28270000
S      -45.01990000     -35.86220000     -73.87060000
S      -47.51090000     -35.82360000     -71.83700000
H      -47.83940000     -35.18110000     -69.53770000
