40
Properties=species:S:1:pos:R:3 #=T CELL(abcABC):=T 1.889726e+02=T 90.00000=T Traj:=T positionsangstrom=T Step:=T 0=T Bead:=T pbc="F F F"
C      -47.13250000     -31.88420000     -71.69480000
C      -46.60680000     -31.18190000     -70.57570000
C      -45.34210000     -30.64970000     -70.67320000
C      -44.58090000     -30.85870000     -71.82450000
C      -45.13680000     -31.49290000     -72.98890000
C      -46.39520000     -32.00260000     -72.87800000
H      -48.01570000     -32.42470000     -71.47560000
H      -44.91200000     -30.04000000     -69.83470000
H      -44.60920000     -31.58060000     -73.91310000
H      -46.81450000     -32.47540000     -73.76620000
C      -43.11360000     -30.36300000     -71.87580000
H      -42.72880000     -30.09130000     -70.94080000
H      -42.93170000     -29.55770000     -72.57440000
C      -47.43430000     -31.15520000     -69.34490000
H      -47.00730000     -30.46670000     -68.63180000
H      -48.41800000     -30.75640000     -69.59350000
S      -42.10120000     -31.88370000     -72.30400000
S      -47.74530000     -32.72570000     -68.47490000
C      -42.48490000     -32.88070000     -70.78190000
H      -41.63660000     -32.69170000     -70.06310000
H      -43.39140000     -32.46920000     -70.30940000
C      -46.11180000     -33.35110000     -68.03900000
H      -46.47200000     -34.10290000     -67.39910000
H      -45.47980000     -32.54110000     -67.56350000
C      -45.17130000     -33.91790000     -69.14380000
H      -44.56390000     -33.04920000     -69.64650000
H      -44.49010000     -34.62010000     -68.68910000
C      -42.53580000     -34.42610000     -71.08630000
H      -42.56500000     -34.94930000     -70.12400000
H      -41.57710000     -34.59460000     -71.60100000
C      -43.68300000     -34.91310000     -71.98830000
C      -43.53890000     -35.40570000     -73.29230000
C      -45.02050000     -34.96990000     -71.47880000
H      -42.66580000     -35.63060000     -73.89010000
C      -45.89670000     -35.51820000     -72.46100000
C      -45.74390000     -34.65380000     -70.27520000
C      -47.05380000     -35.02800000     -70.32140000
S      -45.10550000     -35.89700000     -73.97530000
S      -47.52550000     -35.78680000     -71.87140000
H      -47.85870000     -34.90370000     -69.54960000
