40
Properties=species:S:1:pos:R:3 #=T CELL(abcABC):=T 1.889726e+02=T 90.00000=T Traj:=T positionsangstrom=T Step:=T 0=T Bead:=T pbc="F F F"
C      -45.90660000     -33.89630000     -67.53500000
C      -44.95780000     -34.63150000     -68.23380000
C      -43.74890000     -34.06830000     -68.60940000
C      -43.52510000     -32.65290000     -68.25860000
C      -44.49570000     -31.97270000     -67.55730000
C      -45.69560000     -32.55110000     -67.21630000
H      -46.84710000     -34.37160000     -67.41810000
H      -43.08580000     -34.67590000     -69.21350000
H      -44.14930000     -30.94610000     -67.34300000
H      -46.40380000     -31.93150000     -66.60060000
C      -42.16730000     -32.09020000     -68.65650000
H      -41.38720000     -32.57560000     -68.00280000
H      -42.07580000     -31.02020000     -68.49780000
C      -45.33620000     -36.04750000     -68.61170000
H      -44.57970000     -36.44220000     -69.26610000
H      -45.27370000     -36.76200000     -67.81840000
S      -41.67400000     -32.61620000     -70.36740000
S      -46.99950000     -36.22590000     -69.32150000
C      -43.23270000     -32.00250000     -71.35000000
H      -44.07700000     -31.78720000     -70.70700000
H      -43.07740000     -31.06590000     -71.89650000
C      -46.78830000     -35.45900000     -71.08700000
H      -47.58590000     -35.80830000     -71.77760000
H      -45.82000000     -35.77680000     -71.47150000
C      -46.80710000     -33.92420000     -71.01590000
H      -47.64600000     -33.56710000     -70.36930000
H      -45.83770000     -33.57650000     -70.71080000
C      -43.59610000     -33.08100000     -72.31090000
H      -44.04700000     -33.89870000     -71.93850000
H      -42.65040000     -33.43110000     -72.72460000
C      -44.55480000     -32.72770000     -73.43680000
C      -44.14240000     -32.26480000     -74.67620000
C      -46.01020000     -32.94350000     -73.32490000
H      -43.16820000     -31.91810000     -74.88710000
C      -46.61270000     -32.65440000     -74.55240000
C      -46.99600000     -33.31120000     -72.41960000
C      -48.26510000     -33.42630000     -72.92670000
S      -45.52970000     -32.13600000     -75.83150000
S      -48.30570000     -32.90450000     -74.65580000
H      -49.14740000     -33.87200000     -72.55030000
