40
Properties=species:S:1:pos:R:3 #=T CELL(abcABC):=T 1.889726e+02=T 90.00000=T Traj:=T positionsangstrom=T Step:=T 0=T Bead:=T pbc="F F F"
C      -47.16700000     -31.90830000     -71.57570000
C      -46.61890000     -31.10330000     -70.58770000
C      -45.38000000     -30.50600000     -70.74550000
C      -44.63190000     -30.82330000     -71.89640000
C      -45.12150000     -31.62670000     -72.91280000
C      -46.42540000     -32.12220000     -72.81150000
H      -48.09120000     -32.38210000     -71.30170000
H      -44.86850000     -29.97700000     -69.93770000
H      -44.57750000     -31.81880000     -73.80270000
H      -46.78660000     -32.75020000     -73.68220000
C      -43.16910000     -30.39200000     -71.99260000
H      -42.79540000     -29.80920000     -71.09900000
H      -42.98410000     -29.77840000     -72.92260000
C      -47.28710000     -30.93100000     -69.25620000
H      -46.81030000     -30.13530000     -68.65790000
H      -48.30490000     -30.49890000     -69.35900000
S      -42.03760000     -31.80660000     -72.27910000
S      -47.71090000     -32.49000000     -68.31870000
C      -42.23500000     -32.98700000     -70.82990000
H      -41.36810000     -33.00140000     -70.15810000
H      -43.07700000     -32.64910000     -70.21320000
C      -46.28180000     -33.50730000     -68.01850000
H      -46.74420000     -34.44280000     -67.58220000
H      -45.72850000     -33.12840000     -67.18720000
C      -45.36100000     -33.83410000     -69.19320000
H      -44.98620000     -32.81730000     -69.50650000
H      -44.47220000     -34.36570000     -68.97440000
C      -42.47880000     -34.45710000     -71.18180000
H      -42.47830000     -34.97460000     -70.17270000
H      -41.66610000     -34.91770000     -71.64990000
C      -43.72050000     -34.80590000     -71.98050000
C      -43.55760000     -35.21150000     -73.29400000
C      -45.10060000     -35.01730000     -71.50590000
H      -42.62460000     -35.32150000     -73.84720000
C      -45.89790000     -35.66790000     -72.47910000
C      -45.90870000     -34.65970000     -70.32290000
C      -47.16340000     -35.15050000     -70.43190000
S      -45.03240000     -36.06150000     -73.89550000
S      -47.49390000     -35.88220000     -72.01770000
H      -47.98680000     -35.16200000     -69.67200000
