40
Properties=species:S:1:pos:R:3 #=T CELL(abcABC):=T 1.889726e+02=T 90.00000=T Traj:=T positionsangstrom=T Step:=T 0=T Bead:=T pbc="F F F"
C      -46.27670000     -29.77090000     -68.98630000
C      -47.09760000     -30.59100000     -69.81180000
C      -47.47050000     -31.88800000     -69.41300000
C      -47.05060000     -32.30780000     -68.11000000
C      -46.36520000     -31.46570000     -67.29380000
C      -45.99050000     -30.18010000     -67.71190000
H      -46.02330000     -28.82130000     -69.49580000
H      -48.09430000     -32.59210000     -70.03030000
H      -45.78430000     -31.75410000     -66.39350000
H      -45.42910000     -29.45750000     -67.11510000
C      -47.39640000     -33.77630000     -67.68500000
H      -48.36330000     -33.96720000     -67.20650000
H      -46.59340000     -34.18280000     -67.09240000
C      -47.60630000     -30.11240000     -71.10970000
H      -48.66140000     -29.94130000     -71.12870000
H      -47.05490000     -29.28610000     -71.46860000
S      -47.44260000     -35.04020000     -69.08280000
S      -47.62460000     -31.44350000     -72.51800000
C      -45.76860000     -34.93050000     -70.00190000
H      -45.34130000     -34.00800000     -69.79530000
H      -45.06280000     -35.65850000     -69.48930000
C      -45.90410000     -32.07630000     -72.57860000
H      -45.73890000     -32.54380000     -71.66780000
H      -45.19290000     -31.28540000     -72.78030000
C      -45.75980000     -33.05380000     -73.77090000
H      -46.54870000     -33.75210000     -73.73990000
H      -46.02030000     -32.38340000     -74.64920000
C      -45.90250000     -35.38530000     -71.40650000
H      -46.42150000     -34.54530000     -71.95780000
H      -46.41950000     -36.32540000     -71.52000000
C      -44.50970000     -35.44780000     -72.02350000
C      -43.59970000     -36.38360000     -71.50450000
C      -43.82660000     -34.52950000     -72.91560000
H      -43.83100000     -37.19930000     -70.84550000
C      -42.47440000     -34.91000000     -73.23060000
C      -44.40250000     -33.56220000     -73.81340000
C      -43.33380000     -33.08390000     -74.63780000
S      -41.96430000     -36.28650000     -72.29900000
S      -41.79030000     -33.87640000     -74.42540000
H      -43.46930000     -32.27060000     -75.35030000
