40
Properties=species:S:1:pos:R:3 #=T CELL(abcABC):=T 1.889726e+02=T 90.00000=T Traj:=T positionsangstrom=T Step:=T 0=T Bead:=T pbc="F F F"
C      -46.50180000     -29.66650000     -68.82580000
C      -46.93260000     -30.54050000     -69.82500000
C      -47.18600000     -31.93650000     -69.50500000
C      -46.92370000     -32.38200000     -68.22680000
C      -46.17210000     -31.56190000     -67.35810000
C      -46.04460000     -30.22870000     -67.59620000
H      -46.40940000     -28.60670000     -69.03670000
H      -47.53670000     -32.59340000     -70.26570000
H      -45.88320000     -31.90410000     -66.41390000
H      -45.48520000     -29.59520000     -66.90930000
C      -47.25200000     -33.74270000     -67.71780000
H      -48.29790000     -33.74120000     -67.27270000
H      -46.60650000     -34.12890000     -66.90420000
C      -47.29860000     -30.06260000     -71.18980000
H      -48.14830000     -29.37130000     -71.11110000
H      -46.51250000     -29.47240000     -71.60370000
S      -47.41470000     -35.06070000     -68.99520000
S      -47.67040000     -31.36400000     -72.49970000
C      -45.73200000     -34.95640000     -69.73800000
H      -45.48720000     -33.81920000     -69.74290000
H      -44.94380000     -35.48630000     -69.23120000
C      -45.89340000     -31.86930000     -72.73370000
H      -45.57470000     -32.26270000     -71.72990000
H      -45.26210000     -30.98520000     -72.83910000
C      -45.70420000     -32.76500000     -73.94520000
H      -46.52410000     -33.54370000     -74.07020000
H      -45.71410000     -32.25010000     -74.89790000
C      -45.90760000     -35.36790000     -71.27870000
H      -46.41350000     -34.55480000     -71.71120000
H      -46.56620000     -36.17670000     -71.45810000
C      -44.54110000     -35.45910000     -71.95860000
C      -43.65690000     -36.38690000     -71.53430000
C      -43.95420000     -34.60560000     -72.99170000
H      -43.82560000     -37.29470000     -70.92630000
C      -42.66450000     -34.98770000     -73.24610000
C      -44.45100000     -33.57620000     -73.85770000
C      -43.40330000     -33.17100000     -74.69190000
S      -42.04990000     -36.27790000     -72.21930000
S      -41.92220000     -34.06970000     -74.53410000
H      -43.52000000     -32.43020000     -75.48290000
