40
Properties=species:S:1:pos:R:3 #=T CELL(abcABC):=T 1.889726e+02=T 90.00000=T Traj:=T positionsangstrom=T Step:=T 0=T Bead:=T pbc="F F F"
C      -47.20340000     -31.71550000     -71.57560000
C      -46.32180000     -31.34830000     -70.51610000
C      -45.05070000     -30.86540000     -70.85970000
C      -44.54800000     -30.87180000     -72.21290000
C      -45.49130000     -31.09080000     -73.23780000
C      -46.81570000     -31.44460000     -72.93800000
H      -48.11680000     -32.19880000     -71.40030000
H      -44.35880000     -30.65710000     -70.01500000
H      -45.15560000     -31.04690000     -74.28730000
H      -47.59900000     -31.65700000     -73.66490000
C      -43.07480000     -30.75180000     -72.60450000
H      -42.64550000     -30.03500000     -71.98810000
H      -42.99830000     -30.45010000     -73.66420000
C      -46.88070000     -31.17610000     -69.08470000
H      -46.13150000     -30.76110000     -68.34620000
H      -47.63220000     -30.39080000     -69.12610000
S      -42.16860000     -32.32500000     -72.48580000
S      -47.72940000     -32.65180000     -68.31700000
C      -42.53920000     -32.83220000     -70.76550000
H      -41.89160000     -32.39070000     -69.99940000
H      -43.60530000     -32.47450000     -70.54150000
C      -46.39680000     -33.79850000     -67.79240000
H      -46.93820000     -34.65450000     -67.33590000
H      -45.82250000     -33.20520000     -67.06680000
C      -45.46310000     -34.26800000     -68.92100000
H      -44.91400000     -33.32000000     -69.32170000
H      -44.62390000     -34.86870000     -68.56010000
C      -42.61130000     -34.34850000     -70.57560000
H      -42.83090000     -34.60550000     -69.50180000
H      -41.66420000     -34.77090000     -70.76710000
C      -43.61710000     -34.93180000     -71.59350000
C      -43.33890000     -35.21560000     -72.88270000
C      -45.07060000     -35.05620000     -71.31770000
H      -42.37440000     -35.06740000     -73.37840000
C      -45.80000000     -35.49110000     -72.41680000
C      -46.03710000     -34.79880000     -70.19510000
C      -47.31870000     -35.11450000     -70.54230000
S      -44.77510000     -35.62360000     -73.83090000
S      -47.53900000     -35.50160000     -72.27360000
H      -48.16770000     -34.90740000     -69.88080000
