40
Properties=species:S:1:pos:R:3 #=T CELL(abcABC):=T 1.889726e+02=T 90.00000=T Traj:=T positionsangstrom=T Step:=T 0=T Bead:=T pbc="F F F"
C      -47.36790000     -31.48050000     -71.62950000
C      -46.47520000     -31.29070000     -70.56740000
C      -45.14370000     -31.04690000     -70.90070000
C      -44.63630000     -31.08540000     -72.17720000
C      -45.50820000     -31.32560000     -73.25250000
C      -46.84960000     -31.40040000     -72.89710000
H      -48.40540000     -31.49990000     -71.44630000
H      -44.47430000     -30.80160000     -70.05140000
H      -45.07390000     -31.23390000     -74.24110000
H      -47.62050000     -31.38680000     -73.68440000
C      -43.16200000     -30.77420000     -72.37610000
H      -42.71920000     -30.05130000     -71.62960000
H      -43.00180000     -30.37460000     -73.40180000
C      -46.77750000     -31.27120000     -69.08360000
H      -45.94830000     -31.34100000     -68.50510000
H      -47.25270000     -30.27220000     -68.84950000
S      -42.13660000     -32.30940000     -72.39960000
S      -47.78380000     -32.67490000     -68.54960000
C      -42.20930000     -32.95900000     -70.66990000
H      -41.25280000     -32.73650000     -70.19580000
H      -42.97630000     -32.36170000     -70.24230000
C      -46.52430000     -33.81700000     -67.82080000
H      -47.03520000     -34.62810000     -67.29860000
H      -46.04050000     -33.42390000     -66.91600000
C      -45.49930000     -34.32500000     -68.80820000
H      -44.69450000     -33.65050000     -68.89490000
H      -44.97230000     -35.22560000     -68.36020000
C      -42.51530000     -34.48050000     -70.64450000
H      -42.77840000     -34.82700000     -69.64610000
H      -41.56510000     -34.97980000     -70.91740000
C      -43.66770000     -34.90780000     -71.62850000
C      -43.31300000     -35.38090000     -72.86840000
C      -45.08470000     -34.83570000     -71.36440000
H      -42.31310000     -35.38360000     -73.33240000
C      -45.77610000     -35.33750000     -72.47960000
C      -45.95640000     -34.68840000     -70.23310000
C      -47.25780000     -34.97800000     -70.52340000
S      -44.73650000     -35.58040000     -73.85720000
S      -47.53970000     -35.38670000     -72.18370000
H      -48.10880000     -34.91440000     -69.87540000
