40
Properties=species:S:1:pos:R:3 #=T CELL(abcABC):=T 1.889726e+02=T 90.00000=T Traj:=T positionsangstrom=T Step:=T 0=T Bead:=T pbc="F F F"
C      -47.31380000     -31.53670000     -71.32970000
C      -46.41120000     -31.26560000     -70.36500000
C      -45.04600000     -31.16700000     -70.66830000
C      -44.55300000     -31.19510000     -71.99220000
C      -45.49860000     -31.60860000     -72.93570000
C      -46.82820000     -31.79950000     -72.64900000
H      -48.40400000     -31.64580000     -71.15570000
H      -44.38300000     -30.97050000     -69.86630000
H      -45.16670000     -31.72650000     -73.98010000
H      -47.44730000     -32.11300000     -73.41660000
C      -43.14440000     -30.83340000     -72.34390000
H      -42.75460000     -30.17320000     -71.59260000
H      -43.14690000     -30.25830000     -73.30430000
C      -46.93450000     -31.13260000     -68.94440000
H      -46.04160000     -30.96470000     -68.29870000
H      -47.54210000     -30.31550000     -68.74800000
S      -41.91390000     -32.25860000     -72.37460000
S      -47.89970000     -32.60230000     -68.34670000
C      -42.19950000     -33.05440000     -70.73630000
H      -41.25500000     -33.04050000     -70.15880000
H      -43.07540000     -32.59570000     -70.25040000
C      -46.50290000     -33.70350000     -67.94660000
H      -46.91560000     -34.67840000     -67.65880000
H      -45.93470000     -33.28250000     -67.11430000
C      -45.46140000     -34.09510000     -69.03680000
H      -44.78600000     -33.22360000     -69.34690000
H      -44.71530000     -34.76850000     -68.74540000
C      -42.53190000     -34.55010000     -70.85770000
H      -42.78750000     -34.88220000     -69.79990000
H      -41.65100000     -35.12080000     -71.07310000
C      -43.70750000     -34.88130000     -71.74890000
C      -43.42690000     -35.21820000     -73.04920000
C      -45.11180000     -34.92810000     -71.48510000
H      -42.48010000     -35.14840000     -73.57280000
C      -45.85810000     -35.23940000     -72.62110000
C      -45.98230000     -34.65760000     -70.38400000
C      -47.29780000     -34.80170000     -70.67490000
S      -44.82660000     -35.55310000     -73.97180000
S      -47.51000000     -35.41800000     -72.33290000
H      -48.20880000     -34.61300000     -70.12620000
