40
Properties=species:S:1:pos:R:3 #=T CELL(abcABC):=T 1.889726e+02=T 90.00000=T Traj:=T positionsangstrom=T Step:=T 0=T Bead:=T pbc="F F F"
C      -47.14180000     -31.86030000     -71.38480000
C      -46.39440000     -31.27370000     -70.37630000
C      -45.13650000     -30.80290000     -70.70400000
C      -44.48510000     -31.06900000     -71.92460000
C      -45.25830000     -31.68330000     -72.89780000
C      -46.58950000     -32.10930000     -72.64310000
H      -48.13560000     -32.14080000     -71.12280000
H      -44.52140000     -30.32210000     -70.01430000
H      -44.92890000     -31.89120000     -73.91580000
H      -47.12260000     -32.66700000     -73.38330000
C      -43.00340000     -30.70570000     -72.18880000
H      -42.59330000     -30.08830000     -71.42190000
H      -42.75610000     -30.11410000     -73.14820000
C      -46.86580000     -31.06400000     -68.97320000
H      -46.06740000     -30.68360000     -68.31200000
H      -47.67680000     -30.26090000     -68.93080000
S      -42.01600000     -32.26400000     -72.30540000
S      -47.68060000     -32.53090000     -68.18460000
C      -42.22940000     -33.05090000     -70.68650000
H      -41.21860000     -33.09840000     -70.28160000
H      -42.76750000     -32.46920000     -69.91690000
C      -46.36980000     -33.91470000     -67.97490000
H      -46.94150000     -34.79400000     -67.64490000
H      -45.97880000     -33.58960000     -67.02650000
C      -45.41480000     -34.17940000     -69.14390000
H      -44.83140000     -33.26760000     -69.30340000
H      -44.60840000     -34.82940000     -68.71410000
C      -42.73690000     -34.46680000     -70.85850000
H      -43.07350000     -34.87730000     -69.86040000
H      -41.90200000     -35.08710000     -71.16750000
C      -43.82540000     -34.73940000     -71.83520000
C      -43.50250000     -35.28010000     -73.08410000
C      -45.24220000     -34.85520000     -71.60200000
H      -42.55710000     -35.07100000     -73.57470000
C      -45.98300000     -35.20790000     -72.70320000
C      -46.02420000     -34.63180000     -70.42370000
C      -47.34550000     -34.78310000     -70.69160000
S      -44.91520000     -35.64070000     -74.09070000
S      -47.66300000     -35.38030000     -72.33890000
H      -48.16420000     -34.66440000     -69.94940000
