40
Properties=species:S:1:pos:R:3 #=T CELL(abcABC):=T 1.889726e+02=T 90.00000=T Traj:=T positionsangstrom=T Step:=T 0=T Bead:=T pbc="F F F"
C      -45.97190000     -33.69630000     -67.57330000
C      -45.06510000     -34.58440000     -68.13600000
C      -43.75470000     -34.07370000     -68.48940000
C      -43.40180000     -32.73680000     -68.16600000
C      -44.31180000     -31.93720000     -67.47790000
C      -45.63420000     -32.36770000     -67.27250000
H      -47.00570000     -34.13560000     -67.41790000
H      -42.96690000     -34.63430000     -68.93010000
H      -44.09840000     -30.91870000     -67.21040000
H      -46.47720000     -31.70100000     -67.03820000
C      -42.07400000     -32.23860000     -68.65530000
H      -41.24400000     -32.47670000     -67.98690000
H      -42.19980000     -31.14780000     -68.78860000
C      -45.36310000     -36.00900000     -68.58220000
H      -44.65510000     -36.41360000     -69.34120000
H      -45.41010000     -36.58980000     -67.61840000
S      -41.68120000     -32.73050000     -70.40780000
S      -47.06710000     -36.35610000     -69.35200000
C      -43.06570000     -32.11490000     -71.41690000
H      -43.85970000     -31.70380000     -70.76770000
H      -42.73640000     -31.21530000     -72.02300000
C      -46.92090000     -35.53220000     -71.08860000
H      -47.85240000     -35.93170000     -71.55730000
H      -46.20110000     -36.10190000     -71.59300000
C      -46.67090000     -34.02590000     -71.09530000
H      -47.35360000     -33.58500000     -70.33570000
H      -45.60750000     -33.78360000     -70.86600000
C      -43.50250000     -33.20910000     -72.45880000
H      -43.90810000     -34.01900000     -71.81210000
H      -42.61430000     -33.57760000     -73.06110000
C      -44.52480000     -32.80920000     -73.51430000
C      -44.18100000     -32.32920000     -74.73790000
C      -46.07770000     -32.93170000     -73.44060000
H      -43.12700000     -32.03120000     -74.96040000
C      -46.70000000     -32.53320000     -74.60240000
C      -46.99960000     -33.35310000     -72.38570000
C      -48.24300000     -33.32790000     -72.89320000
S      -45.50800000     -32.08490000     -75.82720000
S      -48.40640000     -32.66570000     -74.49360000
H      -49.12800000     -33.65470000     -72.46250000
