40
Properties=species:S:1:pos:R:3 #=T CELL(abcABC):=T 1.889726e+02=T 90.00000=T Traj:=T positionsangstrom=T Step:=T 0=T Bead:=T pbc="F F F"
C      -47.14720000     -31.01230000     -71.15980000
C      -46.25170000     -30.92150000     -70.11490000
C      -44.90050000     -30.84130000     -70.46450000
C      -44.44510000     -30.77190000     -71.79360000
C      -45.42640000     -30.88050000     -72.84570000
C      -46.78590000     -30.99380000     -72.52940000
H      -48.19910000     -31.14120000     -70.94740000
H      -44.24640000     -30.79990000     -69.63570000
H      -45.02910000     -31.03000000     -73.85130000
H      -47.57720000     -30.98630000     -73.22350000
C      -42.97050000     -30.69740000     -72.11190000
H      -42.34880000     -30.22290000     -71.31840000
H      -42.89500000     -30.11720000     -73.03260000
C      -46.69460000     -31.03210000     -68.69540000
H      -45.84210000     -30.85720000     -67.96960000
H      -47.34820000     -30.15360000     -68.59890000
S      -42.26070000     -32.37990000     -72.55100000
S      -47.64130000     -32.56220000     -68.30400000
C      -42.12740000     -33.32580000     -70.98050000
H      -41.12160000     -33.16930000     -70.57790000
H      -42.89660000     -32.94100000     -70.23120000
C      -46.43190000     -33.97440000     -67.92170000
H      -47.04510000     -34.85470000     -67.62550000
H      -45.84580000     -33.72940000     -67.04810000
C      -45.42110000     -34.38100000     -69.05290000
H      -44.73630000     -33.56280000     -69.22090000
H      -44.79080000     -35.03590000     -68.50970000
C      -42.48690000     -34.84920000     -71.12210000
H      -42.53410000     -35.35240000     -70.17630000
H      -41.61340000     -35.24620000     -71.69040000
C      -43.78170000     -35.04940000     -71.97960000
C      -43.61890000     -35.29780000     -73.28870000
C      -45.16050000     -35.13320000     -71.55960000
H      -42.71210000     -35.33850000     -73.83050000
C      -45.95910000     -35.42690000     -72.67440000
C      -45.92900000     -34.86790000     -70.37780000
C      -47.19160000     -35.24020000     -70.56400000
S      -45.06970000     -35.62650000     -74.20780000
S      -47.64450000     -35.62380000     -72.18800000
H      -47.95810000     -35.09050000     -69.91070000
