40
Properties=species:S:1:pos:R:3 #=T CELL(abcABC):=T 1.889726e+02=T 90.00000=T Traj:=T positionsangstrom=T Step:=T 0=T Bead:=T pbc="F F F"
C      -47.20380000     -30.92330000     -71.18600000
C      -46.21130000     -30.97380000     -70.15780000
C      -44.84410000     -30.84170000     -70.50620000
C      -44.45580000     -30.76310000     -71.86390000
C      -45.40850000     -30.65260000     -72.85460000
C      -46.75520000     -30.83480000     -72.49340000
H      -48.18830000     -31.14410000     -70.86380000
H      -44.17160000     -30.92300000     -69.61280000
H      -45.06950000     -30.55630000     -73.85210000
H      -47.52280000     -30.80950000     -73.31220000
C      -42.92560000     -30.61750000     -72.26940000
H      -42.46090000     -30.02950000     -71.48040000
H      -42.81480000     -30.11700000     -73.24930000
C      -46.63550000     -31.16640000     -68.72140000
H      -45.78990000     -31.11150000     -68.10490000
H      -47.40930000     -30.43700000     -68.39360000
S      -42.09390000     -32.24030000     -72.43120000
S      -47.55510000     -32.74210000     -68.35990000
C      -42.38910000     -33.08160000     -70.77760000
H      -41.44380000     -32.92320000     -70.15930000
H      -43.19960000     -32.62470000     -70.18130000
C      -46.27410000     -34.02010000     -67.98200000
H      -46.87960000     -34.84510000     -67.75100000
H      -45.69360000     -33.63000000     -67.08630000
C      -45.36680000     -34.36650000     -69.14240000
H      -44.83550000     -33.46130000     -69.31490000
H      -44.67810000     -35.15800000     -68.92690000
C      -42.62880000     -34.58500000     -71.01930000
H      -42.75210000     -35.04480000     -70.01390000
H      -41.64130000     -34.97110000     -71.22530000
C      -43.75270000     -35.12160000     -71.89870000
C      -43.59500000     -35.42310000     -73.25350000
C      -45.23200000     -35.14920000     -71.51730000
H      -42.67170000     -35.42740000     -73.85590000
C      -45.99650000     -35.45360000     -72.64600000
C      -46.07500000     -34.91360000     -70.38370000
C      -47.42760000     -35.16820000     -70.64080000
S      -45.06570000     -35.88250000     -74.10840000
S      -47.71190000     -35.60710000     -72.32150000
H      -48.21140000     -35.15420000     -70.04230000
