40
Properties=species:S:1:pos:R:3 #=T CELL(abcABC):=T 1.889726e+02=T 90.00000=T Traj:=T positionsangstrom=T Step:=T 0=T Bead:=T pbc="F F F"
C      -47.22970000     -31.06150000     -71.13670000
C      -46.22690000     -31.00170000     -70.15120000
C      -44.84830000     -30.90680000     -70.50910000
C      -44.44160000     -30.70350000     -71.82540000
C      -45.42910000     -30.68410000     -72.82110000
C      -46.77720000     -30.89360000     -72.50840000
H      -48.25680000     -31.32460000     -70.86030000
H      -44.15460000     -30.76350000     -69.74360000
H      -45.21410000     -30.55750000     -73.91780000
H      -47.64710000     -30.76110000     -73.16420000
C      -42.96490000     -30.57650000     -72.03150000
H      -42.55430000     -29.98410000     -71.20760000
H      -42.75440000     -30.06630000     -72.96020000
C      -46.56880000     -31.16110000     -68.69350000
H      -45.59130000     -31.19690000     -68.12560000
H      -47.12450000     -30.25960000     -68.34270000
S      -42.09830000     -32.14850000     -72.38260000
S      -47.65100000     -32.57130000     -68.20260000
C      -42.42890000     -33.13770000     -70.90310000
H      -41.66430000     -33.04390000     -70.22180000
H      -43.34050000     -32.79630000     -70.43860000
C      -46.60450000     -34.10400000     -68.03510000
H      -47.32060000     -34.90700000     -67.84410000
H      -46.13300000     -34.08790000     -67.05210000
C      -45.51970000     -34.48900000     -69.07640000
H      -44.53380000     -33.87300000     -69.06790000
H      -45.13230000     -35.48540000     -68.76340000
C      -42.55620000     -34.65490000     -71.16620000
H      -42.64720000     -35.10670000     -70.17000000
H      -41.72290000     -35.06830000     -71.65430000
C      -43.70210000     -35.10760000     -71.99020000
C      -43.50560000     -35.54720000     -73.32690000
C      -45.15210000     -35.08710000     -71.68010000
H      -42.52800000     -35.82240000     -73.75380000
C      -45.97310000     -35.49940000     -72.77150000
C      -45.96730000     -34.67330000     -70.50210000
C      -47.31710000     -34.98520000     -70.67550000
S      -45.01700000     -36.07770000     -74.13440000
S      -47.61820000     -35.53730000     -72.32330000
H      -48.03220000     -35.02730000     -69.96330000
