40
Properties=species:S:1:pos:R:3 #=T CELL(abcABC):=T 1.889726e+02=T 90.00000=T Traj:=T positionsangstrom=T Step:=T 0=T Bead:=T pbc="F F F"
C      -47.14520000     -31.33500000     -71.06170000
C      -46.14070000     -31.12110000     -70.05770000
C      -44.79010000     -30.83310000     -70.37830000
C      -44.41340000     -30.77100000     -71.69760000
C      -45.38080000     -30.87910000     -72.66430000
C      -46.72310000     -31.14760000     -72.39360000
H      -48.26300000     -31.51680000     -70.85340000
H      -44.11970000     -30.80080000     -69.58110000
H      -45.08930000     -30.79770000     -73.72990000
H      -47.41310000     -31.38860000     -73.20060000
C      -42.98840000     -30.55940000     -72.08500000
H      -42.37740000     -29.94680000     -71.35330000
H      -42.91500000     -29.94030000     -72.97260000
C      -46.57620000     -31.26480000     -68.57420000
H      -45.72170000     -31.47700000     -67.96510000
H      -47.02050000     -30.39170000     -68.15730000
S      -42.18310000     -32.19810000     -72.46450000
S      -47.80420000     -32.72450000     -68.25470000
C      -42.45070000     -33.20180000     -70.92860000
H      -41.63220000     -32.96850000     -70.14230000
H      -43.38130000     -32.74090000     -70.52890000
C      -46.52030000     -34.05800000     -68.10110000
H      -46.96680000     -35.08130000     -68.12300000
H      -45.92560000     -33.95020000     -67.21340000
C      -45.49830000     -34.02510000     -69.27660000
H      -45.09470000     -33.02420000     -69.40510000
H      -44.67110000     -34.60990000     -68.83510000
C      -42.50260000     -34.69450000     -71.19860000
H      -42.48580000     -35.15750000     -70.20900000
H      -41.57720000     -34.99380000     -71.78350000
C      -43.75630000     -35.09340000     -71.93220000
C      -43.53580000     -35.58410000     -73.23310000
C      -45.15880000     -35.03000000     -71.63670000
H      -42.58130000     -35.59470000     -73.81940000
C      -45.90800000     -35.60810000     -72.66010000
C      -45.95180000     -34.49590000     -70.58960000
C      -47.29320000     -34.79680000     -70.74670000
S      -45.00330000     -35.99760000     -74.12350000
S      -47.60550000     -35.37120000     -72.39550000
H      -48.09640000     -34.45650000     -70.17350000
