40
Properties=species:S:1:pos:R:3 #=T CELL(abcABC):=T 1.889726e+02=T 90.00000=T Traj:=T positionsangstrom=T Step:=T 0=T Bead:=T pbc="F F F"
C      -47.24570000     -31.30800000     -71.04540000
C      -46.32230000     -30.97830000     -70.00840000
C      -44.95460000     -30.83330000     -70.27930000
C      -44.50730000     -30.92020000     -71.60640000
C      -45.39330000     -31.21150000     -72.61240000
C      -46.78280000     -31.41050000     -72.34770000
H      -48.30160000     -31.43720000     -70.71290000
H      -44.21580000     -30.54920000     -69.47760000
H      -45.20090000     -31.28820000     -73.65940000
H      -47.50580000     -31.62630000     -73.17080000
C      -43.00380000     -30.63370000     -71.95700000
H      -42.47900000     -30.36040000     -71.05210000
H      -42.94770000     -29.90270000     -72.75260000
C      -46.78840000     -31.09960000     -68.57640000
H      -45.94650000     -31.01930000     -67.81930000
H      -47.63840000     -30.37220000     -68.37860000
S      -42.21880000     -32.24510000     -72.50540000
S      -47.54910000     -32.74260000     -68.21280000
C      -42.37400000     -33.17710000     -70.84520000
H      -41.47380000     -33.07570000     -70.28250000
H      -43.14970000     -32.71770000     -70.29460000
C      -46.22650000     -34.02500000     -68.00620000
H      -46.69910000     -34.93450000     -67.59730000
H      -45.55200000     -33.52530000     -67.24400000
C      -45.39490000     -34.34710000     -69.22620000
H      -44.75170000     -33.53690000     -69.39640000
H      -44.79270000     -35.25560000     -68.99940000
C      -42.70110000     -34.68720000     -70.99750000
H      -42.82850000     -35.20370000     -70.04870000
H      -41.80410000     -35.21360000     -71.34000000
C      -43.76690000     -35.05900000     -71.96560000
C      -43.51810000     -35.56000000     -73.21330000
C      -45.19720000     -34.88170000     -71.76720000
H      -42.49420000     -35.74900000     -73.54640000
C      -45.91800000     -35.31130000     -72.86650000
C      -46.03050000     -34.62980000     -70.55960000
C      -47.34930000     -34.78550000     -70.89690000
S      -44.95350000     -35.88420000     -74.19260000
S      -47.57710000     -35.23730000     -72.55530000
H      -48.18860000     -34.57210000     -70.24820000
