40
Properties=species:S:1:pos:R:3 #=T CELL(abcABC):=T 1.889726e+02=T 90.00000=T Traj:=T positionsangstrom=T Step:=T 0=T Bead:=T pbc="F F F"
C      -47.27940000     -31.62290000     -71.14870000
C      -46.40090000     -31.30010000     -70.07150000
C      -45.07030000     -30.98100000     -70.39240000
C      -44.54720000     -31.13090000     -71.74900000
C      -45.47260000     -31.33950000     -72.76970000
C      -46.79420000     -31.55040000     -72.49470000
H      -48.33590000     -31.68890000     -70.91270000
H      -44.33810000     -30.80490000     -69.64320000
H      -45.16800000     -31.26160000     -73.78070000
H      -47.58640000     -31.81710000     -73.20310000
C      -42.99680000     -30.96000000     -71.96900000
H      -42.57450000     -30.51590000     -71.04940000
H      -42.74330000     -30.29880000     -72.78560000
C      -46.89830000     -31.21370000     -68.65470000
H      -46.08450000     -31.09950000     -67.93020000
H      -47.61780000     -30.40330000     -68.41370000
S      -42.19270000     -32.54990000     -72.31120000
S      -47.80560000     -32.73450000     -68.15720000
C      -42.26460000     -33.43820000     -70.73670000
H      -41.33280000     -33.33520000     -70.18600000
H      -43.11860000     -32.94220000     -70.19880000
C      -46.45330000     -34.02320000     -68.04130000
H      -46.99140000     -35.02960000     -68.05620000
H      -45.91070000     -34.01010000     -67.06720000
C      -45.32220000     -34.05320000     -69.18540000
H      -44.93420000     -33.01470000     -69.27980000
H      -44.49820000     -34.52010000     -68.71460000
C      -42.46390000     -34.93520000     -70.98120000
H      -42.70590000     -35.36700000     -70.02760000
H      -41.55130000     -35.36870000     -71.46700000
C      -43.66220000     -35.13170000     -71.94450000
C      -43.50100000     -35.39080000     -73.29000000
C      -45.02240000     -34.88900000     -71.67290000
H      -42.49620000     -35.40840000     -73.69630000
C      -45.77610000     -35.02000000     -72.81860000
C      -45.87330000     -34.60300000     -70.50700000
C      -47.20900000     -34.55170000     -70.81800000
S      -44.94320000     -35.35870000     -74.26630000
S      -47.53000000     -34.96200000     -72.54200000
H      -48.04110000     -34.29370000     -70.05540000
