40
Properties=species:S:1:pos:R:3 #=T CELL(abcABC):=T 1.889726e+02=T 90.00000=T Traj:=T positionsangstrom=T Step:=T 0=T Bead:=T pbc="F F F"
C      -45.91610000     -32.26260000     -67.40720000
C      -46.95480000     -32.43250000     -68.27520000
C      -47.13610000     -33.75180000     -68.76630000
C      -46.38260000     -34.81000000     -68.30020000
C      -45.37110000     -34.60240000     -67.32180000
C      -45.09950000     -33.28040000     -66.89960000
H      -45.81270000     -31.30540000     -66.86750000
H      -47.71710000     -33.99360000     -69.67150000
H      -44.70310000     -35.34160000     -66.93470000
H      -44.39420000     -33.01060000     -66.08070000
C      -46.67880000     -36.20720000     -68.78720000
H      -47.54400000     -36.19640000     -69.46230000
H      -46.73550000     -36.95360000     -68.01020000
C      -47.80930000     -31.36120000     -68.79090000
H      -48.86600000     -31.72040000     -68.99510000
H      -47.79340000     -30.50190000     -68.11250000
S      -45.28080000     -36.99160000     -69.87530000
S      -47.16540000     -30.81270000     -70.47920000
C      -45.31770000     -35.82520000     -71.27210000
H      -45.70200000     -36.40780000     -72.08640000
H      -45.98210000     -35.03300000     -71.01080000
C      -45.29650000     -30.89700000     -70.29140000
H      -44.96710000     -30.88260000     -69.21100000
H      -44.93080000     -29.93800000     -70.67580000
C      -44.67660000     -32.04940000     -71.03600000
H      -43.67420000     -32.31130000     -70.66690000
H      -45.34520000     -32.92730000     -70.93600000
C      -43.95650000     -35.26340000     -71.66040000
H      -43.28200000     -36.12760000     -71.74860000
H      -43.66280000     -34.52450000     -70.90510000
C      -44.04380000     -34.59570000     -73.07630000
C      -44.00700000     -35.33580000     -74.23320000
C      -44.27970000     -33.13920000     -73.33440000
H      -44.06420000     -36.47090000     -74.37150000
C      -44.27740000     -32.83270000     -74.68740000
C      -44.42560000     -31.91110000     -72.50300000
C      -44.48480000     -30.79970000     -73.27620000
S      -44.07290000     -34.30170000     -75.62710000
S      -44.35840000     -31.15880000     -75.03430000
H      -44.55120000     -29.74740000     -72.90280000
