40
Properties=species:S:1:pos:R:3 #=T CELL(abcABC):=T 1.889726e+02=T 90.00000=T Traj:=T positionsangstrom=T Step:=T 0=T Bead:=T pbc="F F F"
C      -46.10500000     -32.41620000     -67.21310000
C      -47.01290000     -32.48040000     -68.25580000
C      -47.20750000     -33.78900000     -68.80070000
C      -46.47950000     -34.88190000     -68.30350000
C      -45.50290000     -34.72350000     -67.34360000
C      -45.36210000     -33.45980000     -66.71800000
H      -45.81810000     -31.52270000     -66.68370000
H      -48.13590000     -34.03660000     -69.41350000
H      -45.00790000     -35.61510000     -67.03870000
H      -44.47740000     -33.31690000     -66.08700000
C      -46.68480000     -36.26270000     -68.93050000
H      -47.52010000     -36.27200000     -69.60770000
H      -46.93540000     -37.00940000     -68.12300000
C      -47.66890000     -31.21700000     -68.76360000
H      -48.71820000     -31.45530000     -68.88740000
H      -47.66560000     -30.38570000     -68.04660000
S      -45.26650000     -36.87420000     -69.81860000
S      -47.18360000     -30.75510000     -70.48390000
C      -45.29050000     -35.87140000     -71.43960000
H      -45.73180000     -36.43390000     -72.27310000
H      -46.07980000     -35.07040000     -71.46650000
C      -45.33530000     -30.73750000     -70.29400000
H      -45.14450000     -30.91610000     -69.25440000
H      -44.94530000     -29.75750000     -70.62990000
C      -44.68290000     -31.94770000     -70.99060000
H      -43.74130000     -32.07410000     -70.40780000
H      -45.16090000     -32.81010000     -70.60570000
C      -43.91700000     -35.27220000     -71.78150000
H      -43.12580000     -36.02570000     -71.68730000
H      -43.62410000     -34.57800000     -71.02240000
C      -43.93450000     -34.60220000     -73.11890000
C      -43.62410000     -35.27560000     -74.28840000
C      -44.20920000     -33.21140000     -73.27210000
H      -43.19430000     -36.27180000     -74.51420000
C      -44.24420000     -32.86890000     -74.66910000
C      -44.51770000     -32.06640000     -72.47240000
C      -44.60300000     -30.94820000     -73.27520000
S      -43.84480000     -34.18110000     -75.73660000
S      -44.47710000     -31.19800000     -74.97290000
H      -44.86360000     -29.95980000     -72.88590000
