40
Properties=species:S:1:pos:R:3 #=T CELL(abcABC):=T 1.889726e+02=T 90.00000=T Traj:=T positionsangstrom=T Step:=T 0=T Bead:=T pbc="F F F"
C      -46.52540000     -32.39010000     -67.07100000
C      -47.17490000     -32.50000000     -68.27840000
C      -47.20710000     -33.68870000     -68.99230000
C      -46.73070000     -34.89900000     -68.40040000
C      -46.01660000     -34.79230000     -67.18950000
C      -45.92350000     -33.56400000     -66.51750000
H      -46.48130000     -31.44140000     -66.54640000
H      -47.75760000     -33.71750000     -69.90650000
H      -45.59200000     -35.80170000     -66.78740000
H      -45.40260000     -33.51240000     -65.56670000
C      -46.87460000     -36.17480000     -69.08320000
H      -47.57850000     -36.22030000     -69.92010000
H      -47.04640000     -36.91820000     -68.35180000
C      -47.68690000     -31.15080000     -68.92570000
H      -48.71730000     -31.11360000     -69.21370000
H      -47.41990000     -30.35300000     -68.24490000
S      -45.24250000     -36.80850000     -69.86020000
S      -46.82300000     -30.68800000     -70.50000000
C      -45.08310000     -35.91540000     -71.54760000
H      -45.29090000     -36.66980000     -72.34080000
H      -45.91410000     -35.17310000     -71.66630000
C      -45.04390000     -31.09770000     -70.14360000
H      -45.09430000     -31.39070000     -69.09270000
H      -44.38350000     -30.31500000     -70.24420000
C      -44.52190000     -32.30890000     -70.99560000
H      -43.51120000     -32.56380000     -70.63950000
H      -45.22700000     -33.11470000     -70.77420000
C      -43.68770000     -35.24630000     -71.74160000
H      -43.00650000     -36.07120000     -71.81370000
H      -43.47450000     -34.64110000     -70.84410000
C      -43.69350000     -34.60140000     -73.11020000
C      -43.25760000     -35.13490000     -74.29120000
C      -44.25310000     -33.24490000     -73.33840000
H      -42.98350000     -36.12220000     -74.50470000
C      -44.23380000     -32.81510000     -74.67490000
C      -44.55910000     -32.11680000     -72.49500000
C      -44.82570000     -30.94790000     -73.16230000
S      -43.48940000     -34.08700000     -75.67710000
S      -44.87450000     -31.16560000     -74.94520000
H      -44.98260000     -29.97920000     -72.77930000
