40
Properties=species:S:1:pos:R:3 #=T CELL(abcABC):=T 1.889726e+02=T 90.00000=T Traj:=T positionsangstrom=T Step:=T 0=T Bead:=T pbc="F F F"
C      -46.68180000     -32.44160000     -66.99760000
C      -47.12830000     -32.45030000     -68.29030000
C      -47.21230000     -33.60900000     -69.07470000
C      -46.62740000     -34.80470000     -68.54630000
C      -46.24650000     -34.85390000     -67.17830000
C      -46.17900000     -33.66280000     -66.43430000
H      -46.75300000     -31.48150000     -66.52320000
H      -47.45980000     -33.51000000     -70.16990000
H      -45.86320000     -35.83650000     -66.76020000
H      -45.71120000     -33.58130000     -65.48830000
C      -46.71960000     -36.17840000     -69.35620000
H      -47.41820000     -36.11330000     -70.21530000
H      -47.22560000     -36.93630000     -68.70100000
C      -47.72000000     -31.17520000     -68.91110000
H      -48.74370000     -31.40960000     -69.32110000
H      -47.93350000     -30.34530000     -68.25610000
S      -45.11940000     -36.64960000     -69.97360000
S      -46.74990000     -30.71600000     -70.44390000
C      -45.08410000     -35.75270000     -71.50910000
H      -45.66890000     -36.20600000     -72.33240000
H      -45.59830000     -34.74200000     -71.38590000
C      -44.95240000     -30.87110000     -70.11970000
H      -44.88400000     -30.75230000     -68.98560000
H      -44.49640000     -29.97100000     -70.62190000
C      -44.40880000     -32.16380000     -70.81300000
H      -43.29410000     -32.33050000     -70.69200000
H      -44.73050000     -33.04440000     -70.29590000
C      -43.65840000     -35.43350000     -71.85670000
H      -43.03570000     -36.27010000     -71.86120000
H      -43.17600000     -34.83510000     -71.03210000
C      -43.51480000     -34.66060000     -73.15950000
C      -43.20240000     -35.16430000     -74.39090000
C      -44.04620000     -33.26510000     -73.26100000
H      -42.86890000     -36.16390000     -74.60540000
C      -44.15920000     -32.88270000     -74.54690000
C      -44.58570000     -32.20170000     -72.36740000
C      -45.13870000     -31.16940000     -73.08810000
S      -43.63340000     -34.07500000     -75.72900000
S      -44.93160000     -31.29610000     -74.83550000
H      -45.24040000     -30.17960000     -72.69170000
