40
Properties=species:S:1:pos:R:3 #=T CELL(abcABC):=T 1.889726e+02=T 90.00000=T Traj:=T positionsangstrom=T Step:=T 0=T Bead:=T pbc="F F F"
C      -46.11500000     -33.69420000     -67.56430000
C      -45.21870000     -34.60780000     -68.21280000
C      -43.96370000     -34.20660000     -68.67060000
C      -43.55900000     -32.91660000     -68.45870000
C      -44.45070000     -31.94670000     -67.86040000
C      -45.69830000     -32.37610000     -67.37060000
H      -47.19450000     -33.98730000     -67.45660000
H      -43.23480000     -34.92610000     -69.07510000
H      -44.14270000     -30.95640000     -67.58970000
H      -46.39410000     -31.72860000     -66.90240000
C      -42.20390000     -32.31130000     -68.82410000
H      -41.35250000     -32.88030000     -68.36830000
H      -42.11240000     -31.19610000     -68.56210000
C      -45.68090000     -36.06020000     -68.31940000
H      -44.91550000     -36.68600000     -68.81120000
H      -45.89230000     -36.57310000     -67.35180000
S      -41.66070000     -32.68500000     -70.56330000
S      -47.23620000     -36.12030000     -69.24930000
C      -43.23880000     -32.48340000     -71.56620000
H      -44.12680000     -32.09940000     -71.00810000
H      -43.02850000     -31.69130000     -72.33610000
C      -46.64730000     -35.50950000     -70.91670000
H      -47.31560000     -35.83600000     -71.66340000
H      -45.63020000     -35.92640000     -71.20590000
C      -46.56010000     -33.94590000     -70.93350000
H      -47.42430000     -33.49890000     -70.38690000
H      -45.61760000     -33.50650000     -70.59270000
C      -43.52180000     -33.70790000     -72.46180000
H      -43.79810000     -34.58420000     -71.92420000
H      -42.65540000     -34.04900000     -72.91710000
C      -44.49230000     -33.22570000     -73.56860000
C      -44.04970000     -32.54690000     -74.75710000
C      -45.87030000     -33.03540000     -73.35090000
H      -43.00140000     -32.49360000     -75.13810000
C      -46.50970000     -32.42750000     -74.45030000
C      -46.91110000     -33.46240000     -72.31730000
C      -48.17190000     -33.06610000     -72.76400000
S      -45.40440000     -31.97820000     -75.74310000
S      -48.19820000     -32.33910000     -74.39550000
H      -49.01750000     -33.24050000     -72.05670000
