40
Properties=species:S:1:pos:R:3 #=T CELL(abcABC):=T 1.889726e+02=T 90.00000=T Traj:=T positionsangstrom=T Step:=T 0=T Bead:=T pbc="F F F"
C      -46.90010000     -32.73410000     -66.82460000
C      -47.17740000     -32.65870000     -68.21350000
C      -47.02940000     -33.85130000     -68.99730000
C      -46.66530000     -35.10220000     -68.45400000
C      -46.43600000     -35.15640000     -67.06370000
C      -46.56600000     -34.02170000     -66.27140000
H      -47.20220000     -31.95710000     -66.11460000
H      -47.05490000     -33.92650000     -70.03400000
H      -46.36240000     -36.17300000     -66.63110000
H      -46.30730000     -34.11600000     -65.25000000
C      -46.49440000     -36.25580000     -69.33420000
H      -47.15230000     -36.07680000     -70.21460000
H      -46.84740000     -37.17460000     -68.91090000
C      -47.60040000     -31.33580000     -68.80670000
H      -48.68420000     -31.41220000     -69.08180000
H      -47.44870000     -30.51560000     -68.12670000
S      -44.76460000     -36.64990000     -69.82810000
S      -46.82740000     -30.68180000     -70.44600000
C      -44.77370000     -35.97290000     -71.54730000
H      -44.84430000     -36.83110000     -72.24100000
H      -45.65720000     -35.32990000     -71.73240000
C      -45.03860000     -30.91600000     -70.11050000
H      -45.05230000     -31.11660000     -69.00420000
H      -44.44480000     -29.95290000     -70.25450000
C      -44.45720000     -32.04990000     -70.96680000
H      -43.43240000     -32.21900000     -70.66560000
H      -44.91810000     -32.97080000     -70.64750000
C      -43.48380000     -35.19820000     -71.94300000
H      -42.71170000     -35.91840000     -72.14960000
H      -42.95880000     -34.64570000     -71.15080000
C      -43.61770000     -34.38910000     -73.20100000
C      -43.47800000     -35.01400000     -74.45720000
C      -44.07090000     -33.02520000     -73.36710000
H      -43.24070000     -36.04460000     -74.51980000
C      -44.22270000     -32.70670000     -74.73780000
C      -44.48770000     -31.95680000     -72.43530000
C      -44.90400000     -30.87760000     -73.16280000
S      -43.87270000     -34.00360000     -75.80220000
S      -44.94540000     -31.14170000     -74.92290000
H      -44.91250000     -29.85250000     -72.74360000
