40
Properties=species:S:1:pos:R:3 #=T CELL(abcABC):=T 1.889726e+02=T 90.00000=T Traj:=T positionsangstrom=T Step:=T 0=T Bead:=T pbc="F F F"
C      -46.88840000     -32.85980000     -66.78650000
C      -47.10870000     -32.75110000     -68.21540000
C      -46.93970000     -33.89800000     -68.96200000
C      -46.54630000     -35.13010000     -68.39360000
C      -46.43330000     -35.21360000     -67.02320000
C      -46.54670000     -34.08000000     -66.24570000
H      -46.80930000     -31.98350000     -66.18510000
H      -47.17000000     -33.89140000     -70.00710000
H      -46.16240000     -36.20050000     -66.62630000
H      -46.40850000     -34.13280000     -65.20810000
C      -46.42390000     -36.36070000     -69.24340000
H      -47.15580000     -36.41320000     -70.06760000
H      -46.51770000     -37.22390000     -68.53940000
C      -47.57440000     -31.37200000     -68.79340000
H      -48.66740000     -31.49730000     -68.88150000
H      -47.42470000     -30.64250000     -67.96930000
S      -44.71300000     -36.59280000     -69.94370000
S      -46.94560000     -30.86550000     -70.38110000
C      -44.81590000     -35.80540000     -71.66440000
H      -44.99040000     -36.60510000     -72.39850000
H      -45.62890000     -35.06410000     -71.70650000
C      -45.05240000     -31.00730000     -70.12280000
H      -44.92740000     -31.16200000     -69.05840000
H      -44.58040000     -30.17030000     -70.41420000
C      -44.53080000     -32.18660000     -70.93560000
H      -43.41160000     -32.32140000     -70.77480000
H      -45.08240000     -33.10160000     -70.67610000
C      -43.42710000     -35.07230000     -71.99460000
H      -42.64180000     -35.81740000     -72.03750000
H      -43.26220000     -34.31420000     -71.12450000
C      -43.64110000     -34.34050000     -73.29750000
C      -43.49410000     -34.97250000     -74.52950000
C      -44.16780000     -33.01180000     -73.38910000
H      -43.21840000     -35.99030000     -74.70900000
C      -44.32340000     -32.62910000     -74.70000000
C      -44.61450000     -32.01740000     -72.47020000
C      -44.90350000     -30.83140000     -73.05110000
S      -43.95760000     -33.92520000     -75.87530000
S      -44.78070000     -30.96790000     -74.84370000
H      -45.25200000     -29.91900000     -72.58100000
