40
Properties=species:S:1:pos:R:3 #=T CELL(abcABC):=T 1.889726e+02=T 90.00000=T Traj:=T positionsangstrom=T Step:=T 0=T Bead:=T pbc="F F F"
C      -46.70390000     -33.09640000     -66.79210000
C      -47.16920000     -32.95420000     -68.09360000
C      -47.25720000     -34.16930000     -68.80480000
C      -46.71990000     -35.36960000     -68.29610000
C      -46.31870000     -35.43730000     -66.95650000
C      -46.34580000     -34.28580000     -66.17130000
H      -46.66970000     -32.13270000     -66.23590000
H      -47.52870000     -34.07760000     -69.88930000
H      -46.07320000     -36.41520000     -66.56890000
H      -45.81010000     -34.24720000     -65.16570000
C      -46.45810000     -36.59240000     -69.21250000
H      -47.17150000     -36.61820000     -70.08980000
H      -46.65890000     -37.56720000     -68.78390000
C      -47.58220000     -31.60210000     -68.75470000
H      -48.69250000     -31.53950000     -68.91250000
H      -47.27470000     -30.77250000     -68.13310000
S      -44.67140000     -36.62920000     -69.98320000
S      -46.96810000     -31.24490000     -70.39910000
C      -44.94880000     -35.55320000     -71.59250000
H      -45.57240000     -36.09980000     -72.30030000
H      -45.45330000     -34.63040000     -71.27110000
C      -45.20980000     -31.11530000     -70.08570000
H      -45.03760000     -31.41220000     -69.10650000
H      -44.85870000     -30.07550000     -70.10500000
C      -44.25670000     -31.97740000     -70.96320000
H      -43.23820000     -31.70190000     -70.63320000
H      -44.27210000     -33.03230000     -70.60630000
C      -43.55060000     -35.12830000     -72.22420000
H      -42.96580000     -36.02210000     -72.53890000
H      -42.90000000     -34.70470000     -71.56250000
C      -43.66330000     -34.25640000     -73.42790000
C      -43.50570000     -34.68230000     -74.70870000
C      -44.09870000     -32.86900000     -73.39870000
H      -43.16410000     -35.64490000     -75.05790000
C      -44.29370000     -32.38890000     -74.70810000
C      -44.46010000     -31.86350000     -72.43280000
C      -44.90610000     -30.70020000     -72.95870000
S      -43.86210000     -33.49570000     -75.97690000
S      -44.91660000     -30.79370000     -74.76040000
H      -45.09740000     -29.75130000     -72.40180000
