40
Properties=species:S:1:pos:R:3 #=T CELL(abcABC):=T 1.889726e+02=T 90.00000=T Traj:=T positionsangstrom=T Step:=T 0=T Bead:=T pbc="F F F"
C      -43.38850000     -32.54450000     -68.16290000
C      -44.30890000     -33.63150000     -68.01560000
C      -45.69150000     -33.44000000     -68.16410000
C      -46.26110000     -32.18330000     -68.34830000
C      -45.36420000     -31.02090000     -68.39540000
C      -44.01630000     -31.29220000     -68.32900000
H      -42.28420000     -32.63630000     -68.28780000
H      -46.32100000     -34.35370000     -68.03520000
H      -45.72550000     -29.98310000     -68.40470000
H      -43.39850000     -30.35590000     -68.41000000
C      -47.72870000     -32.10390000     -68.54570000
H      -48.34340000     -31.83300000     -67.69630000
H      -48.19840000     -33.09090000     -68.72560000
C      -43.69900000     -34.93810000     -67.71020000
H      -42.86160000     -34.74120000     -67.10720000
H      -44.39370000     -35.55380000     -67.17630000
S      -48.24510000     -31.08990000     -70.00640000
S      -43.14280000     -36.00120000     -69.21310000
C      -47.61080000     -32.05290000     -71.47880000
H      -47.81640000     -33.09100000     -71.32470000
H      -48.16070000     -31.77270000     -72.40660000
C      -43.60800000     -34.98660000     -70.68840000
H      -42.99170000     -35.24700000     -71.55430000
H      -43.41090000     -33.98780000     -70.55630000
C      -45.07610000     -35.26460000     -71.22610000
H      -45.35990000     -36.33240000     -70.97740000
H      -45.89400000     -34.71360000     -70.62040000
C      -46.11070000     -31.89980000     -71.65510000
H      -45.55170000     -32.39750000     -70.86760000
H      -45.83220000     -30.87720000     -71.49290000
C      -45.74610000     -32.36800000     -72.99600000
C      -45.61970000     -31.45460000     -74.03110000
C      -45.43040000     -33.71030000     -73.36040000
H      -46.00030000     -30.46920000     -74.05450000
C      -45.17650000     -33.82020000     -74.77240000
C      -45.17070000     -34.98840000     -72.70610000
C      -44.78170000     -35.95930000     -73.62250000
S      -45.23030000     -32.31390000     -75.55900000
S      -44.83930000     -35.40170000     -75.30450000
H      -44.51650000     -36.97450000     -73.35290000
