40
Properties=species:S:1:pos:R:3 #=T CELL(abcABC):=T 1.889726e+02=T 90.00000=T Traj:=T positionsangstrom=T Step:=T 0=T Bead:=T pbc="F F F"
C      -43.48460000     -32.44800000     -67.78050000
C      -44.26860000     -33.57610000     -67.79140000
C      -45.70290000     -33.43750000     -68.05960000
C      -46.27570000     -32.19690000     -68.29720000
C      -45.49970000     -31.01850000     -68.13310000
C      -44.12280000     -31.17350000     -67.88600000
H      -42.38290000     -32.49150000     -67.70260000
H      -46.31150000     -34.32270000     -67.97260000
H      -45.84620000     -30.09070000     -68.39550000
H      -43.43250000     -30.38240000     -67.69020000
C      -47.72040000     -32.08700000     -68.60240000
H      -48.22830000     -31.46570000     -67.77970000
H      -48.20640000     -33.02690000     -68.59600000
C      -43.67560000     -34.87370000     -67.59160000
H      -42.75320000     -34.90990000     -67.10710000
H      -44.34970000     -35.47980000     -67.05300000
S      -48.17660000     -31.06140000     -70.12010000
S      -43.35470000     -35.89830000     -69.17980000
C      -47.50510000     -32.10100000     -71.52080000
H      -47.70120000     -33.17120000     -71.37110000
H      -48.08600000     -31.78570000     -72.35570000
C      -43.98600000     -34.86590000     -70.61120000
H      -43.14090000     -34.79380000     -71.28610000
H      -43.94040000     -33.84120000     -70.34210000
C      -45.19200000     -35.38030000     -71.34310000
H      -45.18840000     -36.49950000     -71.24930000
H      -46.03250000     -35.09360000     -70.73290000
C      -45.97450000     -31.94540000     -71.68580000
H      -45.54610000     -32.51670000     -70.84320000
H      -45.77460000     -30.89410000     -71.64870000
C      -45.64180000     -32.42750000     -73.11200000
C      -45.77920000     -31.56260000     -74.14890000
C      -45.26840000     -33.76590000     -73.53860000
H      -45.94410000     -30.46340000     -74.11740000
C      -45.06360000     -33.86070000     -74.89850000
C      -45.08970000     -35.08220000     -72.84790000
C      -44.75330000     -36.06750000     -73.71720000
S      -45.31270000     -32.32970000     -75.70970000
S      -44.52220000     -35.44160000     -75.35880000
H      -44.54150000     -37.07640000     -73.37770000
