40
Properties=species:S:1:pos:R:3 #=T CELL(abcABC):=T 1.889726e+02=T 90.00000=T Traj:=T positionsangstrom=T Step:=T 0=T Bead:=T pbc="F F F"
C      -46.13730000     -33.62210000     -67.52170000
C      -45.22870000     -34.60490000     -68.04690000
C      -43.93190000     -34.22850000     -68.35400000
C      -43.50300000     -32.87350000     -68.40130000
C      -44.46350000     -31.84810000     -68.02970000
C      -45.67300000     -32.25900000     -67.47150000
H      -47.06940000     -33.80380000     -67.04400000
H      -43.22580000     -34.99420000     -68.71110000
H      -44.26070000     -30.80240000     -68.27750000
H      -46.41010000     -31.52270000     -67.16750000
C      -42.13580000     -32.46890000     -68.87090000
H      -41.34910000     -32.78600000     -68.19490000
H      -42.07640000     -31.41840000     -68.74230000
C      -45.66820000     -35.99670000     -68.28270000
H      -44.79350000     -36.51020000     -68.66730000
H      -46.02820000     -36.43190000     -67.32980000
S      -41.67010000     -32.86180000     -70.58290000
S      -47.18680000     -36.18280000     -69.31070000
C      -43.08990000     -32.38450000     -71.65010000
H      -43.99050000     -32.23200000     -71.07370000
H      -42.83830000     -31.50610000     -72.24610000
C      -46.82960000     -35.48440000     -70.91960000
H      -47.62770000     -35.90430000     -71.56850000
H      -45.95700000     -36.00500000     -71.33580000
C      -46.64060000     -33.86830000     -70.95840000
H      -47.40240000     -33.49320000     -70.27620000
H      -45.63290000     -33.70540000     -70.56560000
C      -43.44720000     -33.62710000     -72.47460000
H      -43.79160000     -34.44410000     -71.77750000
H      -42.48070000     -33.97160000     -73.03920000
C      -44.59700000     -33.26490000     -73.51250000
C      -44.06590000     -32.78100000     -74.75050000
C      -45.98590000     -33.17980000     -73.44950000
H      -43.02070000     -32.57520000     -74.96890000
C      -46.54520000     -32.45060000     -74.49990000
C      -46.91120000     -33.31120000     -72.34390000
C      -48.17430000     -32.83950000     -72.68600000
S      -45.32480000     -32.10270000     -75.82210000
S      -48.24890000     -32.15770000     -74.29470000
H      -49.12950000     -33.16280000     -72.18450000
