40
Properties=species:S:1:pos:R:3 #=T CELL(abcABC):=T 1.889726e+02=T 90.00000=T Traj:=T positionsangstrom=T Step:=T 0=T Bead:=T pbc="F F F"
C      -43.72290000     -32.22190000     -67.27670000
C      -44.09100000     -33.38930000     -67.94680000
C      -45.52000000     -33.47700000     -68.26380000
C      -46.41510000     -32.39470000     -67.98720000
C      -45.95480000     -31.26320000     -67.28190000
C      -44.58170000     -31.18340000     -66.93670000
H      -42.70020000     -32.15850000     -66.87430000
H      -45.82700000     -34.35720000     -68.83530000
H      -46.55390000     -30.36810000     -67.10810000
H      -44.23610000     -30.17460000     -66.59010000
C      -47.84460000     -32.49100000     -68.51420000
H      -48.50760000     -32.15310000     -67.66380000
H      -48.07510000     -33.49800000     -68.84060000
C      -43.13430000     -34.57570000     -68.14370000
H      -42.33280000     -34.31420000     -68.80280000
H      -42.71450000     -34.93640000     -67.26780000
S      -48.05630000     -31.31770000     -69.94070000
S      -43.78950000     -36.09840000     -69.09120000
C      -47.62130000     -32.26890000     -71.47610000
H      -47.61720000     -33.38740000     -71.38250000
H      -48.34120000     -31.88350000     -72.21360000
C      -43.72120000     -35.48550000     -70.81760000
H      -43.17820000     -36.26090000     -71.49550000
H      -43.02030000     -34.72380000     -71.00950000
C      -45.02680000     -35.31130000     -71.55450000
H      -45.58460000     -36.25430000     -71.51160000
H      -45.73710000     -34.63980000     -71.04420000
C      -46.13350000     -32.02700000     -71.73670000
H      -45.41260000     -32.42640000     -71.02290000
H      -45.91350000     -30.92260000     -71.72210000
C      -45.75390000     -32.34760000     -73.19490000
C      -45.90580000     -31.50460000     -74.29090000
C      -45.10200000     -33.65810000     -73.65590000
H      -46.31230000     -30.48730000     -74.17880000
C      -44.87760000     -33.65180000     -74.99950000
C      -44.81680000     -34.91120000     -72.99110000
C      -44.38830000     -35.77540000     -73.92140000
S      -45.39050000     -32.14120000     -75.87410000
S      -44.31730000     -35.10310000     -75.62400000
H      -44.05470000     -36.79850000     -73.78500000
