40
Properties=species:S:1:pos:R:3 #=T CELL(abcABC):=T 1.889726e+02=T 90.00000=T Traj:=T positionsangstrom=T Step:=T 0=T Bead:=T pbc="F F F"
C      -45.94760000     -33.18470000     -67.50390000
C      -47.19100000     -33.40030000     -68.20320000
C      -47.23440000     -34.57420000     -68.95620000
C      -46.17130000     -35.48140000     -69.07220000
C      -44.95010000     -35.19050000     -68.41240000
C      -44.88340000     -34.08180000     -67.57590000
H      -45.92690000     -32.38060000     -66.73930000
H      -48.12300000     -34.76740000     -69.56330000
H      -44.01430000     -35.84080000     -68.62730000
H      -44.00660000     -33.79330000     -67.05770000
C      -46.26590000     -36.78830000     -69.82170000
H      -47.14690000     -36.88490000     -70.50000000
H      -46.36550000     -37.60260000     -69.07850000
C      -48.21070000     -32.35160000     -68.30940000
H      -49.14950000     -32.80570000     -68.32890000
H      -48.03420000     -31.67300000     -67.50340000
S      -44.69420000     -37.33610000     -70.73900000
S      -48.07970000     -31.54410000     -69.97920000
C      -44.35740000     -35.96480000     -71.95430000
H      -43.81300000     -36.36130000     -72.79240000
H      -45.34790000     -35.64420000     -72.30540000
C      -46.33000000     -30.99000000     -69.85310000
H      -46.10550000     -30.82420000     -68.80300000
H      -46.30120000     -30.07070000     -70.34390000
C      -45.29660000     -31.91240000     -70.56060000
H      -44.33490000     -31.81130000     -70.00210000
H      -45.53260000     -32.95910000     -70.43970000
C      -43.62800000     -34.65240000     -71.56150000
H      -42.63780000     -34.98280000     -71.31070000
H      -44.11840000     -34.14310000     -70.76490000
C      -43.60450000     -33.80100000     -72.85090000
C      -42.98830000     -34.18400000     -74.03050000
C      -44.20700000     -32.50300000     -73.00190000
H      -42.48390000     -35.13170000     -74.11950000
C      -44.06800000     -31.96500000     -74.27250000
C      -44.98070000     -31.65180000     -72.11120000
C      -45.46340000     -30.56900000     -72.80560000
S      -43.25110000     -33.05500000     -75.39290000
S      -44.98510000     -30.49160000     -74.49290000
H      -46.06380000     -29.86810000     -72.29390000
