40
Properties=species:S:1:pos:R:3 #=T CELL(abcABC):=T 1.889726e+02=T 90.00000=T Traj:=T positionsangstrom=T Step:=T 0=T Bead:=T pbc="F F F"
C      -46.08370000     -33.18340000     -67.41760000
C      -47.19340000     -33.42920000     -68.26980000
C      -47.14950000     -34.57940000     -69.06970000
C      -46.05280000     -35.40040000     -69.07700000
C      -44.95040000     -35.14470000     -68.26320000
C      -44.95340000     -34.03040000     -67.42230000
H      -45.92310000     -32.23850000     -66.80790000
H      -47.98860000     -34.86770000     -69.79340000
H      -44.18740000     -35.95740000     -68.24040000
H      -44.11930000     -33.78630000     -66.77080000
C      -46.09420000     -36.60720000     -70.05960000
H      -46.55000000     -36.40600000     -71.03090000
H      -46.73840000     -37.43020000     -69.63330000
C      -48.34170000     -32.45960000     -68.35700000
H      -49.35310000     -32.93180000     -68.48310000
H      -48.44240000     -31.78660000     -67.46160000
S      -44.44750000     -37.18220000     -70.61510000
S      -48.20960000     -31.51410000     -69.91840000
C      -44.20900000     -36.09060000     -72.03810000
H      -43.58190000     -36.58640000     -72.81570000
H      -45.21880000     -36.00680000     -72.47140000
C      -46.45270000     -31.00280000     -70.02720000
H      -46.10820000     -30.97010000     -69.00750000
H      -46.31970000     -29.99700000     -70.57660000
C      -45.57930000     -32.01740000     -70.74540000
H      -44.74510000     -32.14640000     -70.08460000
H      -46.10990000     -32.94920000     -70.82240000
C      -43.61800000     -34.72320000     -71.56400000
H      -42.60960000     -34.84940000     -71.17420000
H      -44.16270000     -34.32420000     -70.71680000
C      -43.52360000     -33.74590000     -72.72700000
C      -42.82190000     -34.10750000     -73.86070000
C      -44.34440000     -32.57770000     -72.96280000
H      -42.16330000     -34.93200000     -73.87230000
C      -44.17890000     -32.05960000     -74.25980000
C      -45.11490000     -31.63750000     -72.14250000
C      -45.60300000     -30.60330000     -72.93240000
S      -43.07330000     -33.04250000     -75.23870000
S      -45.06670000     -30.61790000     -74.64960000
H      -46.16270000     -29.78080000     -72.56590000
