40
Properties=species:S:1:pos:R:3 #=T CELL(abcABC):=T 1.889726e+02=T 90.00000=T Traj:=T positionsangstrom=T Step:=T 0=T Bead:=T pbc="F F F"
C      -46.23100000     -33.12090000     -67.38570000
C      -47.20570000     -33.40560000     -68.39340000
C      -47.02800000     -34.61550000     -69.10520000
C      -45.94630000     -35.49500000     -68.90660000
C      -45.04440000     -35.18790000     -67.83990000
C      -45.22020000     -34.02390000     -67.02880000
H      -46.42030000     -32.22340000     -66.84740000
H      -47.68800000     -34.66250000     -69.93120000
H      -44.24550000     -35.83540000     -67.66170000
H      -44.48100000     -33.79040000     -66.25740000
C      -45.79790000     -36.72850000     -69.78240000
H      -46.44630000     -36.58630000     -70.68950000
H      -46.09780000     -37.65680000     -69.29160000
C      -48.39220000     -32.46340000     -68.60740000
H      -49.27520000     -33.08150000     -68.65630000
H      -48.43190000     -31.72580000     -67.79820000
S      -44.06490000     -37.08940000     -70.26950000
S      -48.49350000     -31.41560000     -70.22180000
C      -43.91310000     -36.01260000     -71.76100000
H      -43.02670000     -36.47350000     -72.17450000
H      -44.78720000     -36.18820000     -72.37440000
C      -46.67950000     -30.87550000     -70.33010000
H      -46.32680000     -30.73650000     -69.26990000
H      -46.60800000     -29.96050000     -70.87270000
C      -45.70440000     -31.98030000     -70.90830000
H      -44.82160000     -32.03000000     -70.29740000
H      -46.14010000     -32.92110000     -70.72100000
C      -43.72930000     -34.52750000     -71.43580000
H      -42.86720000     -34.38370000     -70.81150000
H      -44.63210000     -34.15400000     -70.99540000
C      -43.49730000     -33.64800000     -72.66090000
C      -42.61030000     -33.95520000     -73.63770000
C      -44.33400000     -32.54710000     -73.04570000
H      -41.92110000     -34.81380000     -73.65480000
C      -44.10610000     -32.10550000     -74.39410000
C      -45.35900000     -31.78030000     -72.38140000
C      -46.03360000     -30.99840000     -73.32420000
S      -42.76430000     -32.92240000     -75.10130000
S      -45.24000000     -30.91190000     -74.95620000
H      -46.96430000     -30.42460000     -73.16860000
