40
Properties=species:S:1:pos:R:3 #=T CELL(abcABC):=T 1.889726e+02=T 90.00000=T Traj:=T positionsangstrom=T Step:=T 0=T Bead:=T pbc="F F F"
C      -46.52700000     -33.05050000     -67.32360000
C      -47.31060000     -33.39390000     -68.42840000
C      -46.98060000     -34.42990000     -69.29010000
C      -46.01490000     -35.35900000     -68.88380000
C      -45.21680000     -35.00230000     -67.76130000
C      -45.46740000     -33.87520000     -67.04040000
H      -46.87160000     -32.14450000     -66.87850000
H      -47.68390000     -34.60340000     -70.05280000
H      -44.44450000     -35.75880000     -67.49210000
H      -44.81630000     -33.65680000     -66.27650000
C      -45.72740000     -36.61980000     -69.61450000
H      -46.41590000     -36.70480000     -70.42820000
H      -45.92050000     -37.49770000     -68.98490000
C      -48.51820000     -32.57770000     -68.77620000
H      -49.43340000     -33.09640000     -68.89240000
H      -48.75000000     -31.90780000     -67.90780000
S      -43.96410000     -36.90190000     -70.06870000
S      -48.36540000     -31.52860000     -70.27090000
C      -43.68360000     -35.95160000     -71.67760000
H      -42.72990000     -36.33020000     -72.13280000
H      -44.42550000     -36.12610000     -72.51970000
C      -46.68870000     -30.95490000     -70.41570000
H      -46.35870000     -30.57180000     -69.41610000
H      -46.75630000     -30.09330000     -71.08340000
C      -45.71700000     -31.99140000     -70.94400000
H      -44.74610000     -31.85200000     -70.39220000
H      -46.02720000     -33.06960000     -70.75610000
C      -43.50690000     -34.46270000     -71.38580000
H      -42.64280000     -34.26500000     -70.72650000
H      -44.30410000     -34.22830000     -70.69350000
C      -43.45790000     -33.70370000     -72.67140000
C      -42.53450000     -33.94880000     -73.63600000
C      -44.33220000     -32.58390000     -73.04610000
H      -41.76700000     -34.72360000     -73.68880000
C      -44.10700000     -32.17600000     -74.35730000
C      -45.42180000     -31.88470000     -72.45680000
C      -46.06310000     -31.10280000     -73.39750000
S      -42.82020000     -33.00700000     -75.10270000
S      -45.25850000     -31.07460000     -75.03950000
H      -46.72250000     -30.31150000     -73.16940000
