40
Properties=species:S:1:pos:R:3 #=T CELL(abcABC):=T 1.889726e+02=T 90.00000=T Traj:=T positionsangstrom=T Step:=T 0=T Bead:=T pbc="F F F"
C      -46.73930000     -33.04290000     -67.28310000
C      -47.46780000     -33.36720000     -68.45520000
C      -47.13180000     -34.55000000     -69.17990000
C      -45.87330000     -35.18530000     -68.90380000
C      -45.16010000     -34.76060000     -67.75960000
C      -45.57590000     -33.72180000     -66.93800000
H      -47.13490000     -32.19670000     -66.70370000
H      -47.76350000     -34.80930000     -70.07510000
H      -44.14730000     -35.27580000     -67.59040000
H      -45.02100000     -33.50860000     -66.06960000
C      -45.55720000     -36.41260000     -69.70890000
H      -45.95030000     -36.34510000     -70.76580000
H      -46.01800000     -37.24100000     -69.17100000
C      -48.61660000     -32.46120000     -68.83370000
H      -49.56800000     -33.00140000     -68.84760000
H      -48.63610000     -31.72100000     -68.04810000
S      -43.72890000     -36.80610000     -69.92580000
S      -48.53910000     -31.65140000     -70.50800000
C      -43.52190000     -35.84960000     -71.41440000
H      -42.69930000     -36.33780000     -71.95480000
H      -44.40410000     -35.97400000     -72.05800000
C      -46.80260000     -31.04520000     -70.38160000
H      -46.70420000     -30.78060000     -69.36540000
H      -46.68670000     -30.06960000     -70.92240000
C      -45.68960000     -31.94820000     -70.93790000
H      -44.80440000     -31.62070000     -70.42430000
H      -45.91120000     -32.94560000     -70.62100000
C      -43.21750000     -34.32670000     -71.30160000
H      -42.20710000     -34.10820000     -70.88030000
H      -43.84440000     -33.74040000     -70.63720000
C      -43.35370000     -33.71240000     -72.70590000
C      -42.45910000     -33.95500000     -73.70480000
C      -44.35740000     -32.71610000     -73.11800000
H      -41.59120000     -34.59790000     -73.60450000
C      -44.19040000     -32.37260000     -74.45790000
C      -45.40640000     -31.97370000     -72.41690000
C      -46.03790000     -31.14480000     -73.29320000
S      -42.80030000     -33.19380000     -75.21440000
S      -45.41490000     -31.12730000     -74.97390000
H      -46.73070000     -30.42510000     -73.00430000
