40
Properties=species:S:1:pos:R:3 #=T CELL(abcABC):=T 1.889726e+02=T 90.00000=T Traj:=T positionsangstrom=T Step:=T 0=T Bead:=T pbc="F F F"
C      -46.87450000     -32.82090000     -67.34230000
C      -47.58750000     -33.30830000     -68.44260000
C      -47.14390000     -34.46750000     -69.16110000
C      -45.96180000     -35.09220000     -68.82560000
C      -45.27970000     -34.64050000     -67.69190000
C      -45.72740000     -33.52860000     -66.95710000
H      -47.20600000     -31.98290000     -66.75000000
H      -47.69970000     -34.84180000     -70.03270000
H      -44.39550000     -35.18560000     -67.32520000
H      -45.17960000     -33.26010000     -66.01270000
C      -45.50680000     -36.26290000     -69.64590000
H      -45.90910000     -36.20120000     -70.63710000
H      -45.98030000     -37.17360000     -69.19880000
C      -48.80820000     -32.64920000     -68.99580000
H      -49.62270000     -33.38150000     -69.29570000
H      -49.22570000     -31.90020000     -68.31470000
S      -43.70960000     -36.46080000     -69.79060000
S      -48.41480000     -31.94390000     -70.67570000
C      -43.23110000     -35.77050000     -71.43150000
H      -42.32710000     -36.27610000     -71.77070000
H      -44.07650000     -36.00850000     -72.11420000
C      -46.73570000     -31.16060000     -70.33080000
H      -46.56830000     -31.02150000     -69.25320000
H      -46.72770000     -30.22050000     -70.90510000
C      -45.63450000     -32.05530000     -70.86820000
H      -44.65690000     -32.05510000     -70.32890000
H      -45.81570000     -33.13850000     -70.80180000
C      -43.03080000     -34.21490000     -71.32820000
H      -42.04430000     -34.08100000     -70.86900000
H      -43.85670000     -33.89310000     -70.65610000
C      -43.19920000     -33.60900000     -72.68880000
C      -42.39600000     -34.02020000     -73.73560000
C      -44.21640000     -32.61230000     -73.03620000
H      -41.58290000     -34.70590000     -73.60020000
C      -44.12340000     -32.29800000     -74.37990000
C      -45.31600000     -31.90420000     -72.36420000
C      -46.06480000     -31.20230000     -73.28130000
S      -42.97850000     -33.28990000     -75.27060000
S      -45.49620000     -31.38340000     -74.98780000
H      -47.08640000     -30.91400000     -73.03510000
