40
Properties=species:S:1:pos:R:3 #=T CELL(abcABC):=T 1.889726e+02=T 90.00000=T Traj:=T positionsangstrom=T Step:=T 0=T Bead:=T pbc="F F F"
C      -47.32830000     -33.04120000     -67.50590000
C      -47.71330000     -33.56580000     -68.76280000
C      -47.03970000     -34.69660000     -69.22750000
C      -45.91710000     -35.23860000     -68.55650000
C      -45.57180000     -34.63990000     -67.28560000
C      -46.29170000     -33.58330000     -66.75160000
H      -47.89590000     -32.14100000     -67.11430000
H      -47.30140000     -35.09050000     -70.23030000
H      -44.71370000     -35.01010000     -66.74690000
H      -45.99550000     -33.01790000     -65.78640000
C      -45.08550000     -36.46200000     -69.06810000
H      -45.69300000     -36.87820000     -69.95490000
H      -45.08800000     -37.26070000     -68.30200000
C      -48.84560000     -32.89870000     -69.49470000
H      -49.51420000     -33.73390000     -69.77500000
H      -49.37770000     -32.16880000     -68.76820000
S      -43.36410000     -35.91900000     -69.45650000
S      -48.22670000     -31.89740000     -71.00230000
C      -43.63000000     -35.29330000     -71.15050000
H      -43.36300000     -35.99840000     -71.98220000
H      -44.64110000     -34.98020000     -71.27780000
C      -46.59190000     -31.27670000     -70.41670000
H      -46.52250000     -31.39730000     -69.33660000
H      -46.63100000     -30.21150000     -70.70510000
C      -45.31160000     -31.92160000     -70.90210000
H      -44.43860000     -31.36180000     -70.46210000
H      -45.27320000     -32.96500000     -70.50560000
C      -42.80570000     -34.01210000     -71.39820000
H      -41.73480000     -34.33500000     -71.28740000
H      -42.94600000     -33.39760000     -70.51060000
C      -43.08630000     -33.44880000     -72.74710000
C      -42.33290000     -33.81370000     -73.84890000
C      -44.17330000     -32.65320000     -73.17220000
H      -41.34210000     -34.42370000     -73.78990000
C      -44.34180000     -32.52690000     -74.55710000
C      -45.21580000     -31.96720000     -72.41800000
C      -46.14100000     -31.41490000     -73.24930000
S      -42.97920000     -33.29520000     -75.35650000
S      -45.83170000     -31.69250000     -74.95330000
H      -46.79110000     -30.60660000     -72.90990000
