40
Properties=species:S:1:pos:R:3 #=T CELL(abcABC):=T 1.889726e+02=T 90.00000=T Traj:=T positionsangstrom=T Step:=T 0=T Bead:=T pbc="F F F"
C      -47.91280000     -33.36550000     -67.73330000
C      -47.66850000     -33.93820000     -69.03000000
C      -46.58800000     -34.79630000     -69.14670000
C      -45.75890000     -35.27920000     -68.08710000
C      -46.03470000     -34.76090000     -66.83340000
C      -47.11060000     -33.86680000     -66.67120000
H      -48.72500000     -32.72390000     -67.52080000
H      -46.38750000     -35.27930000     -70.08680000
H      -45.49950000     -35.18720000     -65.93540000
H      -47.25020000     -33.56470000     -65.70140000
C      -44.63920000     -36.16090000     -68.37800000
H      -44.95990000     -36.94480000     -69.09690000
H      -44.39430000     -36.60420000     -67.44810000
C      -48.57930000     -33.69350000     -70.23680000
H      -48.38160000     -34.40570000     -71.05620000
H      -49.57680000     -33.87830000     -69.92030000
S      -43.10620000     -35.22340000     -69.00290000
S      -48.36180000     -31.84090000     -70.90060000
C      -43.45570000     -35.16780000     -70.86840000
H      -43.08490000     -36.06730000     -71.31040000
H      -44.51440000     -35.07570000     -71.04810000
C      -46.70240000     -31.21000000     -70.48920000
H      -46.62270000     -31.22900000     -69.37750000
H      -46.68760000     -30.17140000     -70.80530000
C      -45.55440000     -32.01640000     -71.09730000
H      -44.66800000     -31.74220000     -70.57370000
H      -45.64760000     -33.04310000     -70.82590000
C      -42.75000000     -33.98730000     -71.46870000
H      -41.65710000     -34.15680000     -71.45350000
H      -42.90260000     -33.03140000     -70.89460000
C      -43.26860000     -33.61500000     -72.81020000
C      -42.62200000     -34.24610000     -73.83760000
C      -44.25560000     -32.64780000     -73.26960000
H      -41.76100000     -34.85260000     -73.80890000
C      -44.25770000     -32.53440000     -74.71840000
C      -45.34490000     -31.93440000     -72.67700000
C      -46.06880000     -31.17260000     -73.56710000
S      -43.08330000     -33.65930000     -75.46890000
S      -45.41240000     -31.24920000     -75.21850000
H      -46.78840000     -30.36120000     -73.37690000
