40
Properties=species:S:1:pos:R:3 #=T CELL(abcABC):=T 1.889726e+02=T 90.00000=T Traj:=T positionsangstrom=T Step:=T 0=T Bead:=T pbc="F F F"
C      -46.16620000     -30.84240000     -71.31750000
C      -44.80670000     -30.99160000     -71.22010000
C      -44.32220000     -31.73130000     -70.13760000
C      -45.14880000     -32.27550000     -69.17800000
C      -46.49150000     -31.97880000     -69.21830000
C      -47.00830000     -31.30470000     -70.32700000
H      -46.75610000     -30.39400000     -72.15420000
H      -43.22780000     -31.96550000     -70.06190000
H      -47.15470000     -32.15090000     -68.40760000
H      -48.13790000     -31.01680000     -70.28490000
C      -44.59060000     -33.07850000     -68.05520000
H      -45.12360000     -34.02140000     -67.98980000
H      -44.50320000     -32.55430000     -67.01120000
C      -43.94410000     -30.37070000     -72.21480000
H      -43.95650000     -29.29040000     -72.18280000
H      -42.91860000     -30.77920000     -72.39740000
S      -42.80110000     -33.85190000     -68.23760000
S      -44.65420000     -30.67900000     -73.92830000
C      -43.27550000     -35.42930000     -68.94030000
H      -42.35820000     -36.02140000     -68.73230000
H      -43.99820000     -36.04880000     -68.40660000
C      -43.67690000     -32.24670000     -74.28380000
H      -42.63970000     -31.92200000     -74.35090000
H      -43.98880000     -32.65600000     -75.28340000
C      -43.84060000     -33.44350000     -73.32180000
H      -43.08750000     -34.09360000     -73.70970000
H      -43.42540000     -33.03140000     -72.40600000
C      -43.67060000     -35.46310000     -70.52110000
H      -43.27480000     -36.30850000     -71.11190000
H      -43.27330000     -34.64970000     -71.04460000
C      -45.11670000     -35.40440000     -70.70810000
C      -46.15880000     -35.82650000     -69.92080000
C      -45.65890000     -34.82480000     -72.01110000
H      -46.09330000     -36.32290000     -68.99700000
C      -47.08130000     -34.94610000     -72.04750000
C      -45.16390000     -34.04750000     -73.10760000
C      -46.13030000     -33.75590000     -74.04460000
S      -47.73880000     -35.83460000     -70.65650000
S      -47.75350000     -34.39350000     -73.54750000
H      -45.97340000     -33.10320000     -74.93910000
