40
Properties=species:S:1:pos:R:3 #=T CELL(abcABC):=T 1.889726e+02=T 90.00000=T Traj:=T positionsangstrom=T Step:=T 0=T Bead:=T pbc="F F F"
C      -48.04400000     -33.28500000     -67.74970000
C      -47.88870000     -33.81470000     -69.05250000
C      -46.72550000     -34.62370000     -69.17850000
C      -45.79560000     -34.97010000     -68.18060000
C      -46.02200000     -34.42730000     -66.93330000
C      -47.11510000     -33.61070000     -66.72070000
H      -48.89160000     -32.70910000     -67.57420000
H      -46.66180000     -35.05130000     -70.17970000
H      -45.43340000     -34.78650000     -66.11420000
H      -47.41920000     -33.10480000     -65.83260000
C      -44.71610000     -36.02850000     -68.35580000
H      -45.09200000     -36.76010000     -69.07990000
H      -44.50700000     -36.45640000     -67.35560000
C      -48.88790000     -33.53450000     -70.21090000
H      -48.96070000     -34.46420000     -70.80270000
H      -49.82540000     -33.21730000     -69.89840000
S      -43.13960000     -35.38740000     -68.91230000
S      -48.29770000     -32.29720000     -71.52510000
C      -43.57860000     -34.95030000     -70.66450000
H      -43.48380000     -35.80660000     -71.34260000
H      -44.68880000     -34.66810000     -70.68660000
C      -46.88320000     -31.34210000     -70.79290000
H      -47.10770000     -31.16180000     -69.71930000
H      -47.05340000     -30.37610000     -71.23300000
C      -45.50060000     -31.84830000     -71.09770000
H      -44.81030000     -31.06810000     -70.76480000
H      -45.25960000     -32.75120000     -70.58560000
C      -42.72180000     -33.69010000     -71.15200000
H      -41.71900000     -34.06310000     -71.08550000
H      -42.96320000     -32.84590000     -70.47650000
C      -43.03600000     -33.37300000     -72.58150000
C      -42.43070000     -34.10170000     -73.60190000
C      -44.18600000     -32.63100000     -73.11750000
H      -41.62890000     -34.72710000     -73.45330000
C      -44.16340000     -32.64510000     -74.54570000
C      -45.30070000     -31.91620000     -72.59690000
C      -45.95060000     -31.25430000     -73.57940000
S      -42.93750000     -33.71120000     -75.23520000
S      -45.36040000     -31.57470000     -75.23980000
H      -46.80390000     -30.52750000     -73.45470000
