40
Properties=species:S:1:pos:R:3 #=T CELL(abcABC):=T 1.889726e+02=T 90.00000=T Traj:=T positionsangstrom=T Step:=T 0=T Bead:=T pbc="F F F"
C      -46.11790000     -29.01620000     -71.43760000
C      -45.28370000     -29.93780000     -70.73470000
C      -44.41060000     -30.82120000     -71.50950000
C      -44.12910000     -30.42610000     -72.80990000
C      -44.93210000     -29.44470000     -73.42930000
C      -45.86440000     -28.76570000     -72.73420000
H      -47.02480000     -28.51980000     -70.98600000
H      -43.69370000     -31.33930000     -70.85510000
H      -44.68610000     -29.08110000     -74.42980000
H      -46.27260000     -27.82180000     -73.05660000
C      -43.03050000     -31.04580000     -73.62250000
H      -42.31330000     -31.53380000     -72.98340000
H      -42.50720000     -30.33590000     -74.26400000
C      -45.44520000     -30.12440000     -69.26930000
H      -44.55800000     -30.66180000     -68.89880000
H      -45.48070000     -29.18270000     -68.77480000
S      -43.65680000     -32.32920000     -74.70770000
S      -47.09550000     -30.95180000     -68.86550000
C      -43.81900000     -33.79090000     -73.59630000
H      -43.30310000     -34.66230000     -74.13150000
H      -43.13520000     -33.57910000     -72.70610000
C      -46.95080000     -32.58230000     -69.69730000
H      -47.01030000     -32.46800000     -70.81130000
H      -47.79670000     -33.22010000     -69.44320000
C      -45.63470000     -33.40200000     -69.43770000
H      -44.82670000     -32.96740000     -70.07040000
H      -45.24370000     -33.29820000     -68.44410000
C      -45.24410000     -34.22940000     -73.06550000
H      -45.93800000     -34.35110000     -73.84220000
H      -45.69980000     -33.45190000     -72.44050000
C      -45.27730000     -35.50070000     -72.23620000
C      -45.12510000     -36.73580000     -72.84930000
C      -45.65630000     -35.66430000     -70.79840000
H      -44.86710000     -36.80800000     -73.92350000
C      -45.51960000     -37.01010000     -70.47520000
C      -45.82310000     -34.85130000     -69.63540000
C      -46.11610000     -35.61240000     -68.53570000
S      -45.25490000     -38.13530000     -71.77910000
S      -45.80350000     -37.27470000     -68.77650000
H      -46.34660000     -35.19730000     -67.56560000
