40
Properties=species:S:1:pos:R:3 #=T CELL(abcABC):=T 1.889726e+02=T 90.00000=T Traj:=T positionsangstrom=T Step:=T 0=T Bead:=T pbc="F F F"
C      -47.76600000     -35.37770000     -69.52240000
C      -48.40490000     -34.83050000     -70.68660000
C      -48.55980000     -33.41180000     -70.69540000
C      -48.14920000     -32.57280000     -69.60640000
C      -47.58090000     -33.12350000     -68.52720000
C      -47.46830000     -34.55930000     -68.44250000
H      -47.79100000     -36.47530000     -69.30140000
H      -49.07490000     -32.90640000     -71.52490000
H      -47.32450000     -32.40510000     -67.72770000
H      -46.97040000     -35.07110000     -67.62470000
C      -48.49010000     -31.10510000     -69.65400000
H      -48.38480000     -30.84540000     -68.64260000
H      -49.47010000     -30.96490000     -69.98840000
C      -48.79290000     -35.60280000     -71.85400000
H      -48.53750000     -36.66080000     -71.68830000
H      -49.78320000     -35.46820000     -72.16210000
S      -47.35660000     -30.19740000     -70.76910000
S      -47.60760000     -35.11180000     -73.34150000
C      -45.65120000     -30.94860000     -70.31810000
H      -45.08070000     -30.12990000     -69.84550000
H      -45.87540000     -31.73020000     -69.62940000
C      -45.98840000     -34.85800000     -72.50490000
H      -45.66680000     -35.84190000     -72.10110000
H      -46.19990000     -34.18420000     -71.67650000
C      -45.01310000     -34.29650000     -73.52440000
H      -45.02150000     -34.87450000     -74.45710000
H      -45.34170000     -33.29020000     -73.73750000
C      -44.96000000     -31.51690000     -71.52780000
H      -44.88540000     -30.71800000     -72.39380000
H      -45.53110000     -32.29000000     -72.00500000
C      -43.64670000     -32.18620000     -71.29560000
C      -42.71800000     -31.78290000     -70.33870000
C      -43.08400000     -33.31670000     -72.08680000
H      -42.81340000     -31.04810000     -69.50260000
C      -41.72380000     -33.56920000     -71.78410000
C      -43.62370000     -34.30700000     -72.95050000
C      -42.70660000     -35.25700000     -73.30750000
S      -41.12120000     -32.57270000     -70.50770000
S      -41.18130000     -34.98300000     -72.53100000
H      -42.97160000     -36.13690000     -73.88130000
