40
Properties=species:S:1:pos:R:3 #=T CELL(abcABC):=T 1.889726e+02=T 90.00000=T Traj:=T positionsangstrom=T Step:=T 0=T Bead:=T pbc="F F F"
C      -47.18990000     -30.71800000     -70.70380000
C      -45.76440000     -30.65490000     -70.66030000
C      -45.10930000     -31.53670000     -69.84300000
C      -45.78270000     -32.64160000     -69.24770000
C      -47.16370000     -32.70720000     -69.35810000
C      -47.87900000     -31.77280000     -70.08380000
H      -47.75900000     -29.99630000     -71.26320000
H      -44.01310000     -31.58210000     -69.87400000
H      -47.60740000     -33.69720000     -68.99290000
H      -48.90180000     -31.80810000     -70.27380000
C      -45.05750000     -33.58260000     -68.32800000
H      -45.46330000     -34.63280000     -68.48600000
H      -45.48900000     -33.33200000     -67.37310000
C      -45.00470000     -29.76970000     -71.61610000
H      -45.43020000     -28.79360000     -71.63030000
H      -44.08280000     -29.53240000     -71.15970000
S      -43.29680000     -33.62330000     -68.40140000
S      -44.94170000     -30.43050000     -73.34460000
C      -43.03430000     -35.33710000     -69.07110000
H      -42.11030000     -35.64970000     -68.66410000
H      -43.87240000     -35.83950000     -68.64290000
C      -43.35970000     -31.51450000     -73.45110000
H      -42.53270000     -30.91490000     -73.20820000
H      -43.28700000     -31.70830000     -74.53100000
C      -43.41550000     -32.83900000     -72.68640000
H      -42.46200000     -33.26870000     -72.85860000
H      -43.39010000     -32.64010000     -71.53920000
C      -43.19780000     -35.53290000     -70.63900000
H      -42.62970000     -36.50120000     -70.82350000
H      -42.70970000     -34.76120000     -71.18460000
C      -44.60110000     -35.65070000     -71.11340000
C      -45.45580000     -36.64110000     -70.70980000
C      -45.16260000     -34.75620000     -72.10890000
H      -45.20830000     -37.41840000     -69.90550000
C      -46.43710000     -35.10210000     -72.46550000
C      -44.61340000     -33.72570000     -72.96110000
C      -45.53740000     -33.34580000     -73.89550000
S      -47.00620000     -36.54320000     -71.51700000
S      -47.06070000     -34.26170000     -73.85430000
H      -45.33140000     -32.65840000     -74.73770000
