40
Properties=species:S:1:pos:R:3 #=T CELL(abcABC):=T 1.889726e+02=T 90.00000=T Traj:=T positionsangstrom=T Step:=T 0=T Bead:=T pbc="F F F"
C      -47.13190000     -30.91820000     -71.09080000
C      -45.79080000     -30.77920000     -70.81450000
C      -45.17420000     -31.63100000     -69.89140000
C      -45.93680000     -32.59560000     -69.26520000
C      -47.35690000     -32.57050000     -69.37930000
C      -47.93590000     -31.77390000     -70.35440000
H      -47.53430000     -30.35690000     -71.96490000
H      -44.11900000     -31.52250000     -69.66760000
H      -48.03830000     -33.13140000     -68.59100000
H      -48.96730000     -31.62810000     -70.50630000
C      -45.27380000     -33.49520000     -68.20310000
H      -45.62940000     -34.51370000     -68.24370000
H      -45.41740000     -33.01650000     -67.24190000
C      -45.05960000     -29.71440000     -71.58210000
H      -45.69960000     -28.77160000     -71.72960000
H      -43.98130000     -29.62710000     -71.18870000
S      -43.37480000     -33.63810000     -68.34750000
S      -44.77110000     -30.34560000     -73.31460000
C      -42.92800000     -35.34990000     -68.99220000
H      -41.81360000     -35.54050000     -68.77980000
H      -43.41420000     -36.09430000     -68.43400000
C      -43.23880000     -31.40510000     -73.20660000
H      -42.48900000     -30.91160000     -72.47260000
H      -42.75280000     -31.45450000     -74.15370000
C      -43.42830000     -32.80950000     -72.64260000
H      -42.58530000     -33.45820000     -72.93490000
H      -43.22380000     -32.73620000     -71.52570000
C      -43.16350000     -35.50580000     -70.53470000
H      -42.78370000     -36.40920000     -70.97960000
H      -42.61650000     -34.77100000     -71.06290000
C      -44.60790000     -35.47130000     -70.98910000
C      -45.41390000     -36.57530000     -70.67450000
C      -45.16020000     -34.72060000     -72.07580000
H      -45.22670000     -37.27260000     -69.77740000
C      -46.33200000     -35.27360000     -72.61730000
C      -44.71450000     -33.62670000     -72.91200000
C      -45.62410000     -33.33260000     -73.89370000
S      -46.93270000     -36.59090000     -71.55360000
S      -47.05450000     -34.41870000     -73.87510000
H      -45.44640000     -32.57900000     -74.63350000
