40
Properties=species:S:1:pos:R:3 #=T CELL(abcABC):=T 1.889726e+02=T 90.00000=T Traj:=T positionsangstrom=T Step:=T 0=T Bead:=T pbc="F F F"
C      -46.97340000     -31.22140000     -71.59540000
C      -45.78740000     -30.84790000     -70.95730000
C      -45.42430000     -31.50080000     -69.73230000
C      -46.02780000     -32.68920000     -69.35480000
C      -47.16310000     -33.07040000     -70.09590000
C      -47.69780000     -32.31090000     -71.13200000
H      -47.25250000     -30.69000000     -72.52390000
H      -44.53540000     -31.16900000     -69.25030000
H      -47.80150000     -33.92680000     -69.79830000
H      -48.63050000     -32.59050000     -71.53270000
C      -45.68300000     -33.41380000     -68.06720000
H      -46.26370000     -34.32960000     -68.01460000
H      -46.13090000     -32.86000000     -67.22320000
C      -44.83440000     -29.81160000     -71.44380000
H      -45.16870000     -28.78270000     -71.16730000
H      -43.89740000     -29.83920000     -70.83670000
S      -43.97400000     -33.86620000     -67.55010000
S      -44.49290000     -30.10630000     -73.22060000
C      -43.54890000     -35.22470000     -68.68930000
H      -42.78260000     -35.81100000     -68.32810000
H      -44.39270000     -35.91620000     -68.64010000
C      -43.11850000     -31.40810000     -73.40220000
H      -42.12440000     -30.95730000     -73.20840000
H      -43.21840000     -31.68140000     -74.40320000
C      -43.41260000     -32.66760000     -72.53130000
H      -42.50460000     -33.33350000     -72.72270000
H      -43.35280000     -32.35490000     -71.51690000
C      -43.25110000     -35.04980000     -70.20780000
H      -42.46940000     -35.74740000     -70.48060000
H      -42.85930000     -34.03200000     -70.33630000
C      -44.45470000     -35.40160000     -71.05040000
C      -45.18800000     -36.55790000     -70.79600000
C      -45.02560000     -34.62730000     -72.12570000
H      -45.03590000     -37.32910000     -70.03860000
C      -46.16230000     -35.24240000     -72.69330000
C      -44.72450000     -33.43920000     -72.80640000
C      -45.62860000     -33.14850000     -73.77050000
S      -46.66920000     -36.72780000     -71.87350000
S      -46.98460000     -34.26540000     -73.92970000
H      -45.68450000     -32.30530000     -74.43550000
