40
Properties=species:S:1:pos:R:3 #=T CELL(abcABC):=T 1.889726e+02=T 90.00000=T Traj:=T positionsangstrom=T Step:=T 0=T Bead:=T pbc="F F F"
C      -47.05510000     -31.19070000     -71.41610000
C      -45.80890000     -31.02390000     -70.78610000
C      -45.42900000     -31.89760000     -69.76570000
C      -46.32830000     -32.73850000     -69.13000000
C      -47.65540000     -32.76800000     -69.65300000
C      -47.93830000     -32.08060000     -70.79690000
H      -47.32120000     -30.55060000     -72.20670000
H      -44.35180000     -31.91870000     -69.50120000
H      -48.43410000     -33.32350000     -69.11180000
H      -48.97650000     -32.21990000     -71.27940000
C      -45.93420000     -33.53790000     -67.86770000
H      -46.40030000     -34.56280000     -67.94460000
H      -46.28280000     -33.03360000     -66.95910000
C      -44.73170000     -30.04460000     -71.26980000
H      -44.86840000     -28.95440000     -71.08300000
H      -43.74940000     -30.38030000     -70.89200000
S      -44.12910000     -33.75320000     -67.47740000
S      -44.44780000     -30.16500000     -73.14190000
C      -43.72450000     -35.32320000     -68.45630000
H      -42.72510000     -35.62670000     -68.10280000
H      -44.32270000     -36.21310000     -68.27930000
C      -42.99690000     -31.35390000     -73.16010000
H      -42.14820000     -30.83900000     -72.81030000
H      -42.92090000     -31.69760000     -74.23440000
C      -43.30530000     -32.63160000     -72.41030000
H      -42.33700000     -33.22570000     -72.50380000
H      -43.40230000     -32.44410000     -71.29340000
C      -43.47190000     -35.11680000     -69.95960000
H      -42.57000000     -35.74920000     -70.22530000
H      -43.05170000     -34.11130000     -70.14860000
C      -44.63480000     -35.30260000     -70.97730000
C      -45.48700000     -36.39990000     -70.87170000
C      -44.99110000     -34.57010000     -72.23510000
H      -45.46550000     -37.06730000     -70.07370000
C      -46.01490000     -35.18300000     -72.96770000
C      -44.51700000     -33.44410000     -72.94960000
C      -45.15530000     -33.29170000     -74.14990000
S      -46.77490000     -36.48080000     -72.11860000
S      -46.36160000     -34.44220000     -74.53740000
H      -44.94070000     -32.53810000     -74.89940000
