40
Properties=species:S:1:pos:R:3 #=T CELL(abcABC):=T 1.889726e+02=T 90.00000=T Traj:=T positionsangstrom=T Step:=T 0=T Bead:=T pbc="F F F"
C      -47.17040000     -31.15910000     -71.20030000
C      -45.87360000     -30.95870000     -70.67470000
C      -45.52300000     -31.79800000     -69.61750000
C      -46.43000000     -32.77590000     -69.04330000
C      -47.71900000     -32.89880000     -69.57330000
C      -48.08740000     -32.06520000     -70.66100000
H      -47.56020000     -30.71640000     -72.10540000
H      -44.55530000     -31.82360000     -69.15360000
H      -48.40050000     -33.57300000     -69.12790000
H      -49.01450000     -32.13270000     -71.25670000
C      -46.10070000     -33.63020000     -67.86870000
H      -46.63830000     -34.55880000     -67.80630000
H      -46.41830000     -33.09040000     -66.97770000
C      -44.88170000     -29.99380000     -71.23400000
H      -45.29950000     -28.98250000     -71.06540000
H      -44.02310000     -30.00380000     -70.57150000
S      -44.24240000     -33.79180000     -67.67850000
S      -44.43010000     -30.20150000     -73.04970000
C      -43.74540000     -35.28510000     -68.59170000
H      -42.89240000     -35.67170000     -68.04680000
H      -44.52840000     -36.01930000     -68.56900000
C      -42.97190000     -31.31350000     -73.16820000
H      -42.06890000     -30.77250000     -72.71890000
H      -42.78380000     -31.35340000     -74.23750000
C      -43.02560000     -32.67730000     -72.50090000
H      -42.05960000     -33.21680000     -72.67930000
H      -43.13750000     -32.50970000     -71.47830000
C      -43.53310000     -34.93670000     -70.11020000
H      -42.73430000     -35.53590000     -70.44260000
H      -43.29480000     -33.87730000     -70.16780000
C      -44.76780000     -35.19660000     -70.97220000
C      -45.82370000     -36.04250000     -70.70330000
C      -44.93060000     -34.63710000     -72.30740000
H      -45.70470000     -36.77940000     -69.95220000
C      -46.01500000     -35.14750000     -72.96320000
C      -44.14860000     -33.63700000     -73.00870000
C      -44.64880000     -33.51410000     -74.24100000
S      -46.78120000     -36.46400000     -72.10980000
S      -46.13900000     -34.50790000     -74.59050000
H      -44.41050000     -32.65160000     -74.88200000
