40
Properties=species:S:1:pos:R:3 #=T CELL(abcABC):=T 1.889726e+02=T 90.00000=T Traj:=T positionsangstrom=T Step:=T 0=T Bead:=T pbc="F F F"
C      -45.88650000     -33.88170000     -67.21120000
C      -45.15280000     -34.71900000     -68.05590000
C      -43.93980000     -34.24590000     -68.57600000
C      -43.59380000     -32.92490000     -68.39600000
C      -44.34070000     -32.06250000     -67.62710000
C      -45.47720000     -32.57490000     -66.99250000
H      -46.81440000     -34.31880000     -66.73750000
H      -43.28440000     -34.88500000     -69.19000000
H      -44.07610000     -31.04360000     -67.46000000
H      -46.03460000     -31.92270000     -66.38870000
C      -42.26870000     -32.46400000     -69.01260000
H      -41.57260000     -32.98070000     -68.26790000
H      -42.03720000     -31.40830000     -68.79380000
C      -45.64900000     -36.11200000     -68.40310000
H      -44.78900000     -36.53480000     -68.91940000
H      -45.79400000     -36.69610000     -67.49080000
S      -41.64930000     -33.00510000     -70.66530000
S      -47.14450000     -36.05290000     -69.43260000
C      -43.10940000     -32.53750000     -71.77060000
H      -43.94630000     -32.09520000     -71.22480000
H      -42.66370000     -31.74690000     -72.45460000
C      -46.82860000     -35.08410000     -71.02180000
H      -47.65290000     -35.41110000     -71.71810000
H      -46.00310000     -35.61630000     -71.45350000
C      -46.55110000     -33.55060000     -70.87040000
H      -47.03800000     -33.15840000     -70.01340000
H      -45.50890000     -33.42650000     -70.51840000
C      -43.52670000     -33.74950000     -72.67540000
H      -43.86390000     -34.51640000     -72.02830000
H      -42.66440000     -34.06560000     -73.12160000
C      -44.61770000     -33.42000000     -73.68240000
C      -44.28950000     -33.27190000     -74.99160000
C      -45.93830000     -32.82270000     -73.36440000
H      -43.34680000     -33.51870000     -75.51290000
C      -46.60240000     -32.32900000     -74.47560000
C      -46.80740000     -32.83200000     -72.14200000
C      -48.11700000     -32.37480000     -72.50450000
S      -45.60820000     -32.58700000     -75.90780000
S      -48.18240000     -31.69620000     -74.17440000
H      -49.05220000     -32.38590000     -71.85090000
