40
Properties=species:S:1:pos:R:3 #=T CELL(abcABC):=T 1.889726e+02=T 90.00000=T Traj:=T positionsangstrom=T Step:=T 0=T Bead:=T pbc="F F F"
C      -47.18490000     -31.29750000     -71.23630000
C      -45.92090000     -31.13460000     -70.65480000
C      -45.59960000     -31.93180000     -69.55350000
C      -46.43300000     -32.89850000     -69.02670000
C      -47.68390000     -33.11470000     -69.64450000
C      -48.02120000     -32.28520000     -70.76910000
H      -47.41800000     -30.64030000     -72.10480000
H      -44.57110000     -31.85500000     -69.14200000
H      -48.42380000     -33.83610000     -69.23790000
H      -48.95780000     -32.40680000     -71.15210000
C      -46.08730000     -33.66270000     -67.76430000
H      -46.56660000     -34.62650000     -67.71740000
H      -46.32240000     -32.99440000     -66.93570000
C      -44.91980000     -30.10780000     -71.15190000
H      -45.33650000     -29.12760000     -71.14250000
H      -43.93350000     -30.16390000     -70.60730000
S      -44.26010000     -33.94250000     -67.46710000
S      -44.58540000     -30.45080000     -73.03370000
C      -43.89130000     -35.33000000     -68.65120000
H      -43.03140000     -35.89780000     -68.32200000
H      -44.75300000     -35.96460000     -68.58220000
C      -42.88550000     -31.28550000     -73.06870000
H      -42.12510000     -30.82480000     -72.52090000
H      -42.76500000     -31.21650000     -74.13740000
C      -42.77310000     -32.79920000     -72.67140000
H      -41.82560000     -33.08880000     -73.04930000
H      -42.69880000     -32.85430000     -71.56070000
C      -43.64460000     -34.74580000     -70.05190000
H      -42.84140000     -35.26040000     -70.45670000
H      -43.22120000     -33.78490000     -69.92880000
C      -44.86440000     -34.91150000     -70.92720000
C      -46.04030000     -35.61620000     -70.64060000
C      -44.84760000     -34.44490000     -72.27290000
H      -46.38690000     -36.01360000     -69.67430000
C      -45.86850000     -35.02600000     -73.06850000
C      -43.93530000     -33.67300000     -73.16700000
C      -44.42400000     -33.59300000     -74.44610000
S      -47.01870000     -35.95090000     -72.04840000
S      -45.88230000     -34.53440000     -74.74730000
H      -43.87030000     -33.19450000     -75.27450000
