40
Properties=species:S:1:pos:R:3 #=T CELL(abcABC):=T 1.889726e+02=T 90.00000=T Traj:=T positionsangstrom=T Step:=T 0=T Bead:=T pbc="F F F"
C      -46.88270000     -31.58370000     -71.34380000
C      -45.69320000     -31.37440000     -70.71370000
C      -45.40040000     -31.99020000     -69.48910000
C      -46.33790000     -32.81030000     -68.87450000
C      -47.57310000     -32.97980000     -69.49870000
C      -47.85090000     -32.37350000     -70.69050000
H      -47.02840000     -31.05430000     -72.22940000
H      -44.44580000     -31.91070000     -69.03040000
H      -48.33270000     -33.60110000     -69.07470000
H      -48.93500000     -32.44310000     -71.06070000
C      -46.11110000     -33.48920000     -67.52480000
H      -46.78870000     -34.34290000     -67.40300000
H      -46.36710000     -32.82600000     -66.70000000
C      -44.59500000     -30.47480000     -71.28860000
H      -44.78610000     -29.39720000     -70.99110000
H      -43.62660000     -30.74700000     -71.03160000
S      -44.31920000     -34.10120000     -67.23960000
S      -44.60120000     -30.60290000     -73.12310000
C      -44.03740000     -35.32110000     -68.60600000
H      -43.14310000     -35.82760000     -68.29510000
H      -44.79960000     -36.00840000     -68.68290000
C      -42.86160000     -31.35750000     -73.33470000
H      -42.14890000     -30.59100000     -72.97150000
H      -42.63800000     -31.47230000     -74.33230000
C      -42.82830000     -32.76980000     -72.75490000
H      -41.89070000     -33.23600000     -73.18330000
H      -42.72210000     -32.75090000     -71.68480000
C      -43.85300000     -34.58050000     -69.99570000
H      -42.92070000     -34.88730000     -70.41300000
H      -43.66120000     -33.54340000     -69.81470000
C      -44.95180000     -34.72910000     -70.96810000
C      -46.08540000     -35.42210000     -70.67860000
C      -44.83600000     -34.44640000     -72.37110000
H      -46.22530000     -35.87160000     -69.69470000
C      -45.92870000     -34.95630000     -73.12440000
C      -44.02020000     -33.60380000     -73.20450000
C      -44.44610000     -33.61530000     -74.52530000
S      -47.11770000     -35.73880000     -72.07380000
S      -45.99890000     -34.43630000     -74.76750000
H      -44.07790000     -32.98680000     -75.26930000
