40
Properties=species:S:1:pos:R:3 #=T CELL(abcABC):=T 1.889726e+02=T 90.00000=T Traj:=T positionsangstrom=T Step:=T 0=T Bead:=T pbc="F F F"
C      -46.89460000     -31.62660000     -71.28690000
C      -45.61270000     -31.38740000     -70.65550000
C      -45.36900000     -31.88690000     -69.34920000
C      -46.30250000     -32.72500000     -68.66980000
C      -47.48800000     -32.91050000     -69.33320000
C      -47.77240000     -32.50170000     -70.64280000
H      -47.06710000     -31.41210000     -72.36350000
H      -44.46170000     -31.56800000     -68.82880000
H      -48.22390000     -33.45760000     -68.79030000
H      -48.80140000     -32.82560000     -71.04070000
C      -46.02040000     -33.30350000     -67.31500000
H      -46.75720000     -34.07170000     -67.09070000
H      -46.01760000     -32.47100000     -66.56910000
C      -44.57980000     -30.41120000     -71.21010000
H      -44.98830000     -29.42730000     -71.01350000
H      -43.60250000     -30.44090000     -70.70620000
S      -44.33060000     -34.02230000     -67.19560000
S      -44.26950000     -30.38180000     -73.07390000
C      -44.07400000     -35.21010000     -68.65280000
H      -43.24210000     -35.87130000     -68.25570000
H      -44.96100000     -35.91710000     -68.57590000
C      -42.82360000     -31.48370000     -73.49260000
H      -41.87110000     -31.01690000     -73.18880000
H      -42.81540000     -31.49700000     -74.61320000
C      -42.80560000     -32.86480000     -72.82290000
H      -41.83550000     -33.31010000     -73.11480000
H      -42.85280000     -32.82400000     -71.75990000
C      -43.85320000     -34.76140000     -70.11640000
H      -43.01040000     -35.41050000     -70.50850000
H      -43.48070000     -33.69420000     -70.18940000
C      -44.96240000     -34.92410000     -71.09650000
C      -46.14090000     -35.56100000     -70.80170000
C      -44.98870000     -34.51110000     -72.52080000
H      -46.41040000     -35.73500000     -69.80250000
C      -46.14950000     -34.91620000     -73.11240000
C      -44.10440000     -33.67740000     -73.30790000
C      -44.53870000     -33.67190000     -74.61960000
S      -47.30240000     -35.74550000     -72.07020000
S      -46.06440000     -34.54390000     -74.85990000
H      -44.13320000     -33.00830000     -75.36300000
