40
Properties=species:S:1:pos:R:3 #=T CELL(abcABC):=T 1.889726e+02=T 90.00000=T Traj:=T positionsangstrom=T Step:=T 0=T Bead:=T pbc="F F F"
C      -46.69790000     -31.60040000     -71.36210000
C      -45.54750000     -31.26060000     -70.65350000
C      -45.35480000     -31.71830000     -69.35300000
C      -46.25090000     -32.57680000     -68.72900000
C      -47.43610000     -32.88400000     -69.45110000
C      -47.62720000     -32.37040000     -70.69950000
H      -46.91330000     -31.11000000     -72.35050000
H      -44.41320000     -31.46380000     -68.77460000
H      -48.13090000     -33.54700000     -68.94320000
H      -48.45300000     -32.59310000     -71.34520000
C      -45.87220000     -33.15830000     -67.37000000
H      -46.51700000     -33.92510000     -66.93930000
H      -45.76440000     -32.43330000     -66.57860000
C      -44.46190000     -30.40120000     -71.15340000
H      -44.58430000     -29.36940000     -70.84020000
H      -43.53580000     -30.75310000     -70.61590000
S      -44.20260000     -33.96370000     -67.34760000
S      -44.16100000     -30.35700000     -72.95270000
C      -44.32560000     -35.29040000     -68.62840000
H      -43.50530000     -35.94550000     -68.41520000
H      -45.20480000     -35.90010000     -68.54520000
C      -42.74160000     -31.52540000     -73.23360000
H      -41.84930000     -31.13840000     -72.87080000
H      -42.61920000     -31.55370000     -74.38250000
C      -42.91350000     -32.99450000     -72.81740000
H      -41.99370000     -33.54700000     -73.08020000
H      -42.85430000     -33.06740000     -71.67030000
C      -44.05570000     -34.70490000     -70.00390000
H      -43.08760000     -35.13650000     -70.29840000
H      -43.97790000     -33.66770000     -69.86730000
C      -45.05500000     -34.95940000     -71.07610000
C      -46.26340000     -35.61430000     -70.76860000
C      -45.05710000     -34.54760000     -72.48180000
H      -46.62740000     -35.90060000     -69.80280000
C      -46.22970000     -34.96330000     -73.07000000
C      -44.20510000     -33.74610000     -73.31600000
C      -44.69600000     -33.63380000     -74.61520000
S      -47.31880000     -35.86160000     -72.18670000
S      -46.18090000     -34.64740000     -74.82840000
H      -44.09550000     -33.16050000     -75.43440000
