40
Properties=species:S:1:pos:R:3 #=T CELL(abcABC):=T 1.889726e+02=T 90.00000=T Traj:=T positionsangstrom=T Step:=T 0=T Bead:=T pbc="F F F"
C      -46.40770000     -31.36830000     -71.52400000
C      -45.42080000     -30.64080000     -70.85100000
C      -45.21220000     -30.91140000     -69.43850000
C      -45.91680000     -32.01900000     -68.79180000
C      -46.88090000     -32.74230000     -69.55870000
C      -47.28340000     -32.27690000     -70.82750000
H      -46.63110000     -31.01520000     -72.52670000
H      -44.43560000     -30.34590000     -68.88930000
H      -47.45980000     -33.55910000     -69.06800000
H      -48.13210000     -32.61050000     -71.35080000
C      -45.59630000     -32.50890000     -67.37550000
H      -46.56100000     -32.72920000     -66.76850000
H      -45.02780000     -31.74480000     -66.86300000
C      -44.64160000     -29.65400000     -71.65880000
H      -45.31680000     -28.90260000     -72.00890000
H      -43.97230000     -29.14470000     -70.95200000
S      -44.55390000     -34.07870000     -67.31700000
S      -43.88750000     -30.38140000     -73.21470000
C      -45.25010000     -35.25400000     -68.46220000
H      -45.29090000     -36.26120000     -67.99120000
H      -46.32040000     -35.05130000     -68.72420000
C      -42.75230000     -31.70870000     -72.71750000
H      -42.00670000     -31.33070000     -71.93800000
H      -42.23660000     -31.97790000     -73.60450000
C      -43.39600000     -32.90440000     -72.03950000
H      -42.67360000     -33.65310000     -71.56470000
H      -43.95740000     -32.60180000     -71.18120000
C      -44.42290000     -35.31350000     -69.81020000
H      -43.68260000     -36.11360000     -69.65170000
H      -43.86000000     -34.38150000     -69.83980000
C      -45.26290000     -35.52660000     -71.01420000
C      -46.27830000     -36.45230000     -71.03230000
C      -45.11300000     -34.83990000     -72.34720000
H      -46.59220000     -37.03150000     -70.19410000
C      -46.09120000     -35.32090000     -73.22420000
C      -44.32060000     -33.77670000     -72.86070000
C      -44.79220000     -33.38780000     -74.07940000
S      -47.12760000     -36.54110000     -72.57200000
S      -46.06570000     -34.42810000     -74.74090000
H      -44.28720000     -32.69260000     -74.73490000
