40
Properties=species:S:1:pos:R:3 #=T CELL(abcABC):=T 1.889726e+02=T 90.00000=T Traj:=T positionsangstrom=T Step:=T 0=T Bead:=T pbc="F F F"
C      -46.62270000     -30.87770000     -71.31240000
C      -45.37490000     -30.71740000     -70.69010000
C      -45.11980000     -31.32990000     -69.43740000
C      -46.18690000     -32.06250000     -68.84590000
C      -47.41110000     -32.09570000     -69.43700000
C      -47.63340000     -31.48470000     -70.61280000
H      -46.75700000     -30.63140000     -72.37510000
H      -44.08450000     -31.19790000     -68.98550000
H      -48.29010000     -32.54030000     -68.97090000
H      -48.67340000     -31.54550000     -70.98830000
C      -45.95200000     -32.64730000     -67.44520000
H      -46.78640000     -33.22410000     -67.03680000
H      -45.71730000     -31.90600000     -66.68400000
C      -44.31550000     -29.90450000     -71.37010000
H      -44.61250000     -28.82100000     -71.47430000
H      -43.38950000     -29.89150000     -70.76000000
S      -44.46590000     -33.88920000     -67.33530000
S      -43.93220000     -30.30470000     -73.10850000
C      -45.06860000     -35.08960000     -68.62390000
H      -45.27750000     -36.11770000     -68.24710000
H      -46.00540000     -34.64770000     -68.87970000
C      -42.81600000     -31.76310000     -73.08240000
H      -41.76970000     -31.59950000     -72.77730000
H      -42.75440000     -32.02310000     -74.14370000
C      -43.37860000     -32.95220000     -72.25000000
H      -42.55030000     -33.76460000     -72.08090000
H      -43.75050000     -32.58590000     -71.29980000
C      -44.27340000     -35.11640000     -69.88800000
H      -43.47840000     -35.82480000     -69.71920000
H      -43.90030000     -34.13690000     -70.02450000
C      -45.10290000     -35.53250000     -71.08140000
C      -45.95760000     -36.62920000     -71.01690000
C      -45.17910000     -34.87890000     -72.31380000
H      -46.08880000     -37.35360000     -70.22790000
C      -46.07570000     -35.43410000     -73.20580000
C      -44.47500000     -33.76100000     -72.91360000
C      -44.91830000     -33.53920000     -74.20020000
S      -46.78890000     -36.84910000     -72.54390000
S      -46.14340000     -34.69640000     -74.75970000
H      -44.43780000     -32.88720000     -74.91470000
