40
Properties=species:S:1:pos:R:3 #=T CELL(abcABC):=T 1.889726e+02=T 90.00000=T Traj:=T positionsangstrom=T Step:=T 0=T Bead:=T pbc="F F F"
C      -46.70820000     -30.66000000     -71.17180000
C      -45.36090000     -30.65960000     -70.69330000
C      -45.09400000     -31.29520000     -69.42720000
C      -46.14390000     -32.01150000     -68.76620000
C      -47.42230000     -31.99300000     -69.33640000
C      -47.70750000     -31.30190000     -70.47550000
H      -47.02190000     -30.02580000     -71.99800000
H      -44.10130000     -31.32280000     -68.95000000
H      -48.19730000     -32.68000000     -69.01690000
H      -48.72240000     -31.21050000     -70.77460000
C      -45.92220000     -32.70250000     -67.38650000
H      -46.87190000     -33.15760000     -67.02520000
H      -45.62520000     -31.91710000     -66.66260000
C      -44.26800000     -29.97220000     -71.33120000
H      -44.36200000     -28.92740000     -71.34180000
H      -43.31880000     -30.34320000     -70.90580000
S      -44.54640000     -33.85150000     -67.32520000
S      -44.12890000     -30.29220000     -73.23660000
C      -45.01120000     -35.36070000     -68.50100000
H      -44.76340000     -36.30190000     -67.99950000
H      -46.09920000     -35.25520000     -68.56260000
C      -42.86880000     -31.71380000     -73.11070000
H      -42.06000000     -31.25330000     -72.54890000
H      -42.51670000     -31.89040000     -74.16470000
C      -43.37510000     -32.93150000     -72.33930000
H      -42.54020000     -33.58850000     -72.14390000
H      -43.51610000     -32.67770000     -71.29070000
C      -44.23490000     -35.19130000     -69.85970000
H      -43.36430000     -35.83100000     -69.77250000
H      -43.76000000     -34.18470000     -69.98270000
C      -45.01750000     -35.58640000     -71.06360000
C      -45.85710000     -36.67790000     -71.04900000
C      -45.02000000     -34.93160000     -72.34890000
H      -45.83540000     -37.46470000     -70.29700000
C      -45.88320000     -35.54940000     -73.27750000
C      -44.46110000     -33.75620000     -72.95550000
C      -44.97850000     -33.46010000     -74.20260000
S      -46.71020000     -36.92620000     -72.58730000
S      -46.16670000     -34.69290000     -74.80000000
H      -44.87360000     -32.65190000     -74.87680000
