40
Properties=species:S:1:pos:R:3 #=T CELL(abcABC):=T 1.889726e+02=T 90.00000=T Traj:=T positionsangstrom=T Step:=T 0=T Bead:=T pbc="F F F"
C      -44.50140000     -33.60200000     -67.59050000
C      -44.77200000     -34.78050000     -68.28020000
C      -46.17120000     -35.02130000     -68.67010000
C      -47.06770000     -33.94420000     -68.62570000
C      -46.59470000     -32.72750000     -68.09950000
C      -45.33730000     -32.52360000     -67.58060000
H      -43.55210000     -33.59680000     -67.09460000
H      -46.41280000     -35.98070000     -69.15710000
H      -47.37440000     -32.01430000     -67.92940000
H      -45.02040000     -31.58320000     -67.13550000
C      -48.60820000     -34.10390000     -68.94030000
H      -49.14280000     -33.80780000     -68.06550000
H      -48.80070000     -35.12240000     -69.05750000
C      -43.64030000     -35.79990000     -68.26910000
H      -42.74900000     -35.40010000     -67.76240000
H      -43.99390000     -36.76160000     -67.86500000
S      -49.21940000     -33.22980000     -70.36180000
S      -42.97630000     -36.28760000     -69.94110000
C      -48.09170000     -33.79730000     -71.72740000
H      -47.92110000     -34.86830000     -71.53480000
H      -48.54170000     -33.51410000     -72.62700000
C      -43.39440000     -34.76710000     -70.88270000
H      -42.67920000     -33.97150000     -70.84780000
H      -44.33110000     -34.37750000     -70.39160000
C      -43.79580000     -34.99840000     -72.41480000
H      -43.12370000     -35.62880000     -72.86310000
H      -44.75010000     -35.51100000     -72.47730000
C      -46.64810000     -33.21800000     -71.64570000
H      -45.95740000     -34.04960000     -71.47430000
H      -46.49390000     -32.61090000     -70.75840000
C      -46.10000000     -32.38480000     -72.73860000
C      -46.74940000     -31.30600000     -73.28340000
C      -44.71840000     -32.58720000     -73.28300000
H      -47.72220000     -30.89850000     -73.03090000
C      -44.34720000     -31.66470000     -74.21360000
C      -43.74840000     -33.67680000     -73.20050000
C      -42.66530000     -33.41400000     -73.98630000
S      -45.62680000     -30.47060000     -74.49720000
S      -42.72150000     -31.84510000     -74.72350000
H      -41.78770000     -33.97380000     -74.18380000
