40
Properties=species:S:1:pos:R:3 #=T CELL(abcABC):=T 1.889726e+02=T 90.00000=T Traj:=T positionsangstrom=T Step:=T 0=T Bead:=T pbc="F F F"
C      -46.84650000     -30.49300000     -70.88420000
C      -45.48990000     -30.63500000     -70.37890000
C      -45.20670000     -31.31880000     -69.21600000
C      -46.25120000     -31.89300000     -68.43830000
C      -47.53900000     -31.76460000     -68.88890000
C      -47.85020000     -31.05350000     -70.07650000
H      -47.05280000     -29.99950000     -71.85480000
H      -44.17460000     -31.24720000     -68.90540000
H      -48.35360000     -32.01160000     -68.33920000
H      -48.92120000     -31.03040000     -70.43260000
C      -45.83980000     -32.37970000     -67.08200000
H      -46.81630000     -32.52350000     -66.55520000
H      -45.21770000     -31.60630000     -66.65980000
C      -44.28240000     -30.11240000     -71.21630000
H      -44.15940000     -29.00680000     -71.17420000
H      -43.39770000     -30.48340000     -70.80620000
S      -44.76630000     -33.91270000     -67.21070000
S      -44.47650000     -30.50150000     -72.97820000
C      -45.29610000     -34.91640000     -68.70530000
H      -45.07310000     -36.00230000     -68.47700000
H      -46.36480000     -34.79220000     -68.86150000
C      -43.07010000     -31.59980000     -73.45610000
H      -42.18360000     -31.07720000     -73.10560000
H      -43.11550000     -31.66720000     -74.51590000
C      -43.10340000     -32.97410000     -72.80030000
H      -42.15110000     -33.54510000     -72.81240000
H      -43.28280000     -32.77600000     -71.74050000
C      -44.56590000     -34.54910000     -69.98930000
H      -43.45540000     -34.77600000     -69.86420000
H      -44.54230000     -33.45060000     -70.12840000
C      -45.12580000     -35.27230000     -71.17520000
C      -45.94210000     -36.37980000     -71.05600000
C      -44.98340000     -34.87890000     -72.59070000
H      -46.43900000     -36.77440000     -70.15410000
C      -45.64190000     -35.75650000     -73.40180000
C      -44.22560000     -33.88130000     -73.29160000
C      -44.36000000     -34.03420000     -74.65650000
S      -46.60590000     -36.95200000     -72.60770000
S      -45.55630000     -35.23850000     -75.10310000
H      -44.13040000     -33.32190000     -75.39580000
