40
Properties=species:S:1:pos:R:3 #=T CELL(abcABC):=T 1.889726e+02=T 90.00000=T Traj:=T positionsangstrom=T Step:=T 0=T Bead:=T pbc="F F F"
C      -41.00680000     -33.58770000     -71.23260000
C      -41.91440000     -34.10010000     -70.33270000
C      -42.78990000     -35.12180000     -70.73070000
C      -42.75680000     -35.66620000     -72.06400000
C      -41.78410000     -35.12940000     -72.92670000
C      -40.90870000     -34.10820000     -72.56460000
H      -40.49840000     -32.68700000     -70.96370000
H      -43.44370000     -35.52700000     -69.89620000
H      -41.63220000     -35.68930000     -73.92650000
H      -40.20410000     -33.72670000     -73.29580000
C      -43.61290000     -36.82790000     -72.55270000
H      -43.97450000     -37.34290000     -71.69490000
H      -43.05980000     -37.57920000     -73.14290000
C      -42.00940000     -33.55480000     -68.94570000
H      -42.44320000     -34.22240000     -68.18560000
H      -41.04450000     -33.28810000     -68.52960000
S      -44.93860000     -36.24400000     -73.72700000
S      -42.77650000     -31.86640000     -68.92120000
C      -45.47630000     -34.64490000     -72.96710000
H      -44.63790000     -34.11860000     -72.52640000
H      -45.75550000     -33.96590000     -73.72920000
C      -44.13530000     -31.91830000     -70.17940000
H      -43.70390000     -32.26560000     -71.11140000
H      -44.45230000     -30.84770000     -70.19710000
C      -45.30730000     -32.67910000     -69.63680000
H      -45.15300000     -33.70770000     -69.97440000
H      -45.37780000     -32.69270000     -68.55730000
C      -46.58680000     -34.96640000     -71.92070000
H      -46.16570000     -35.01720000     -70.94460000
H      -47.10890000     -35.90410000     -72.18550000
C      -47.62410000     -33.77060000     -71.94790000
C      -48.76310000     -33.79010000     -72.71350000
C      -47.48430000     -32.59010000     -71.08970000
H      -49.00720000     -34.55870000     -73.47200000
C      -48.62670000     -31.73730000     -71.38590000
C      -46.64190000     -32.08180000     -70.09210000
C      -47.12250000     -30.89830000     -69.51670000
S      -49.63120000     -32.25650000     -72.61700000
S      -48.66300000     -30.40440000     -70.21880000
H      -46.58780000     -30.28240000     -68.81770000
