40
Properties=species:S:1:pos:R:3 #=T CELL(abcABC):=T 1.889726e+02=T 90.00000=T Traj:=T positionsangstrom=T Step:=T 0=T Bead:=T pbc="F F F"
C      -46.97810000     -30.54740000     -70.62560000
C      -45.54940000     -30.67800000     -70.49020000
C      -45.12560000     -31.17100000     -69.22530000
C      -46.03830000     -31.66640000     -68.24170000
C      -47.42100000     -31.48950000     -68.42110000
C      -47.85110000     -30.92410000     -69.65030000
H      -47.35510000     -30.17350000     -71.58210000
H      -44.05830000     -31.15190000     -69.00220000
H      -48.03490000     -31.85440000     -67.60580000
H      -48.96750000     -30.94190000     -69.86380000
C      -45.56010000     -32.39740000     -67.03420000
H      -46.44070000     -32.80290000     -66.53530000
H      -45.04520000     -31.68230000     -66.38730000
C      -44.61540000     -30.01840000     -71.52350000
H      -44.95960000     -28.95260000     -71.67630000
H      -43.61930000     -29.97340000     -71.02260000
S      -44.36900000     -33.83930000     -67.38380000
S      -44.43540000     -30.77500000     -73.19840000
C      -45.45420000     -34.64110000     -68.60510000
H      -45.63890000     -35.72380000     -68.37880000
H      -46.47980000     -34.12810000     -68.54470000
C      -42.91610000     -31.88600000     -73.16990000
H      -42.10640000     -31.25540000     -72.73610000
H      -42.58030000     -32.11940000     -74.15850000
C      -43.08100000     -33.22270000     -72.40950000
H      -42.08230000     -33.63350000     -72.30390000
H      -43.41270000     -33.10150000     -71.37650000
C      -44.88320000     -34.49840000     -70.08730000
H      -43.80440000     -34.76270000     -70.06930000
H      -44.84970000     -33.41970000     -70.25200000
C      -45.63010000     -35.11440000     -71.29150000
C      -46.72720000     -35.91650000     -71.18890000
C      -45.03650000     -34.97730000     -72.58030000
H      -47.26370000     -36.14110000     -70.29940000
C      -45.78460000     -35.67070000     -73.53450000
C      -43.99380000     -34.22310000     -73.17730000
C      -43.95830000     -34.44100000     -74.56840000
S      -47.08630000     -36.61750000     -72.79770000
S      -45.10870000     -35.53390000     -75.15970000
H      -43.30900000     -34.02690000     -75.25850000
