40
Properties=species:S:1:pos:R:3 #=T CELL(abcABC):=T 1.889726e+02=T 90.00000=T Traj:=T positionsangstrom=T Step:=T 0=T Bead:=T pbc="F F F"
C      -46.79480000     -30.48630000     -70.76460000
C      -45.41530000     -30.43000000     -70.65780000
C      -44.77600000     -30.97360000     -69.53180000
C      -45.54040000     -31.58890000     -68.52350000
C      -46.93310000     -31.72510000     -68.63250000
C      -47.55270000     -31.09550000     -69.76110000
H      -47.14250000     -29.92590000     -71.56430000
H      -43.69460000     -30.73490000     -69.38250000
H      -47.59980000     -32.08830000     -67.85450000
H      -48.61050000     -31.17670000     -69.81320000
C      -44.84980000     -32.05190000     -67.28390000
H      -45.32320000     -31.70220000     -66.39790000
H      -43.79440000     -31.83780000     -67.37040000
C      -44.56220000     -29.96520000     -71.79070000
H      -44.99000000     -29.02370000     -72.14040000
H      -43.51560000     -29.72380000     -71.48310000
S      -44.96640000     -33.95770000     -67.13700000
S      -44.72710000     -31.13190000     -73.20060000
C      -45.66760000     -34.66690000     -68.67650000
H      -45.55540000     -35.74240000     -68.50130000
H      -46.73370000     -34.42200000     -68.85610000
C      -43.05750000     -31.88510000     -73.13190000
H      -42.38890000     -31.14860000     -72.62880000
H      -42.74830000     -31.94170000     -74.16840000
C      -42.93950000     -33.26630000     -72.44950000
H      -41.88880000     -33.56260000     -72.63750000
H      -43.05090000     -33.13220000     -71.36720000
C      -44.97280000     -34.27280000     -70.02360000
H      -43.90200000     -34.48880000     -70.02080000
H      -45.03030000     -33.27300000     -70.18560000
C      -45.63960000     -34.98020000     -71.13650000
C      -46.73950000     -35.83020000     -71.09060000
C      -45.02920000     -34.92470000     -72.48710000
H      -47.36700000     -36.16240000     -70.23700000
C      -45.81900000     -35.62830000     -73.41010000
C      -43.93210000     -34.22220000     -73.08690000
C      -43.84630000     -34.57510000     -74.41220000
S      -47.27710000     -36.37050000     -72.75120000
S      -45.09260000     -35.69290000     -74.98230000
H      -43.05180000     -34.34210000     -75.12060000
