40
Properties=species:S:1:pos:R:3 #=T CELL(abcABC):=T 1.889726e+02=T 90.00000=T Traj:=T positionsangstrom=T Step:=T 0=T Bead:=T pbc="F F F"
C      -46.76360000     -30.55180000     -70.60120000
C      -45.37310000     -30.68010000     -70.74830000
C      -44.64430000     -31.22340000     -69.72940000
C      -45.24080000     -31.48630000     -68.46670000
C      -46.66530000     -31.33160000     -68.35430000
C      -47.43370000     -30.90360000     -69.43510000
H      -47.38470000     -30.28250000     -71.46660000
H      -43.59770000     -31.26430000     -69.82960000
H      -47.17450000     -31.48930000     -67.34540000
H      -48.53450000     -30.82890000     -69.44690000
C      -44.59810000     -32.19020000     -67.37700000
H      -44.70580000     -31.74220000     -66.39670000
H      -43.57940000     -32.25720000     -67.56240000
C      -44.76000000     -30.09420000     -71.97680000
H      -45.39330000     -29.21970000     -72.25870000
H      -43.75380000     -29.76920000     -71.67390000
S      -45.16560000     -33.93080000     -67.08720000
S      -44.50530000     -31.07330000     -73.48350000
C      -45.92680000     -34.43830000     -68.65980000
H      -46.33660000     -35.44920000     -68.42700000
H      -46.72760000     -33.68280000     -68.83050000
C      -42.85230000     -31.83150000     -73.16640000
H      -42.17180000     -31.14910000     -72.62150000
H      -42.42380000     -32.00450000     -74.17980000
C      -43.06100000     -33.24100000     -72.44820000
H      -42.01780000     -33.66010000     -72.44400000
H      -43.32740000     -33.04850000     -71.39970000
C      -45.08860000     -34.43070000     -69.88590000
H      -44.13670000     -34.90300000     -69.70690000
H      -44.76870000     -33.33840000     -70.15990000
C      -45.70270000     -35.02380000     -71.15040000
C      -46.79220000     -35.87960000     -71.10680000
C      -45.19010000     -34.86270000     -72.42520000
H      -47.28600000     -36.04360000     -70.20950000
C      -45.86400000     -35.70110000     -73.37580000
C      -44.04500000     -34.17840000     -73.07150000
C      -43.96050000     -34.48370000     -74.40590000
S      -47.28280000     -36.51690000     -72.68790000
S      -45.14300000     -35.65290000     -75.00820000
H      -43.26170000     -34.06440000     -75.10180000
