40
Properties=species:S:1:pos:R:3 #=T CELL(abcABC):=T 1.889726e+02=T 90.00000=T Traj:=T positionsangstrom=T Step:=T 0=T Bead:=T pbc="F F F"
C      -46.63390000     -30.24820000     -70.63110000
C      -45.29210000     -30.51320000     -70.79430000
C      -44.58020000     -31.11120000     -69.74970000
C      -45.23480000     -31.48450000     -68.61120000
C      -46.61930000     -31.22330000     -68.49940000
C      -47.37570000     -30.73140000     -69.55400000
H      -47.21220000     -29.71750000     -71.39910000
H      -43.54870000     -31.39990000     -69.85760000
H      -47.09560000     -31.64870000     -67.66590000
H      -48.47470000     -30.56320000     -69.52950000
C      -44.42020000     -32.33220000     -67.59450000
H      -44.27740000     -31.73130000     -66.69770000
H      -43.37650000     -32.58850000     -68.04380000
C      -44.53470000     -29.98380000     -72.01120000
H      -45.11050000     -29.17530000     -72.34350000
H      -43.53340000     -29.59270000     -71.79620000
S      -45.17220000     -33.97280000     -67.02110000
S      -44.59770000     -31.16930000     -73.44500000
C      -45.97660000     -34.65890000     -68.59240000
H      -46.26350000     -35.67120000     -68.41850000
H      -46.87860000     -34.13270000     -68.73670000
C      -43.04410000     -31.99040000     -73.18180000
H      -42.34350000     -31.29220000     -72.75900000
H      -42.60330000     -32.20490000     -74.13790000
C      -43.10470000     -33.23770000     -72.28730000
H      -42.13340000     -33.70180000     -72.08060000
H      -43.50440000     -33.03360000     -71.29470000
C      -45.03430000     -34.62770000     -69.76470000
H      -44.21360000     -35.27010000     -69.49110000
H      -44.60420000     -33.59680000     -69.82470000
C      -45.67400000     -35.16470000     -71.06690000
C      -46.78850000     -36.00400000     -71.06660000
C      -45.17700000     -34.98930000     -72.41000000
H      -47.25580000     -36.35360000     -70.24350000
C      -45.94200000     -35.62920000     -73.38850000
C      -44.03990000     -34.19920000     -73.02390000
C      -43.98620000     -34.44770000     -74.35340000
S      -47.20860000     -36.55840000     -72.71120000
S      -45.33360000     -35.41040000     -75.00600000
H      -43.30020000     -33.99400000     -75.05910000
