40
Properties=species:S:1:pos:R:3 #=T CELL(abcABC):=T 1.889726e+02=T 90.00000=T Traj:=T positionsangstrom=T Step:=T 0=T Bead:=T pbc="F F F"
C      -46.62300000     -29.93840000     -70.58230000
C      -45.30470000     -30.21560000     -70.89570000
C      -44.58400000     -30.87520000     -69.89560000
C      -45.21910000     -31.48100000     -68.75560000
C      -46.58840000     -31.36070000     -68.70210000
C      -47.32580000     -30.50880000     -69.56350000
H      -47.10400000     -29.20030000     -71.24000000
H      -43.45620000     -31.07040000     -69.90070000
H      -47.09740000     -31.71690000     -67.84870000
H      -48.35540000     -30.39720000     -69.42410000
C      -44.48370000     -32.25140000     -67.71700000
H      -44.47480000     -31.63810000     -66.83990000
H      -43.53570000     -32.59630000     -68.08030000
C      -44.62990000     -29.73320000     -72.04880000
H      -45.12460000     -28.94640000     -72.61350000
H      -43.53960000     -29.52330000     -71.87400000
S      -45.25060000     -33.84050000     -67.14520000
S      -44.54780000     -31.13850000     -73.31730000
C      -45.81810000     -34.81770000     -68.56140000
H      -46.14230000     -35.81870000     -68.09850000
H      -46.82810000     -34.34180000     -68.89450000
C      -42.93320000     -32.03650000     -72.98020000
H      -42.20900000     -31.38490000     -72.41020000
H      -42.51510000     -32.16080000     -73.99110000
C      -43.00580000     -33.47230000     -72.34500000
H      -42.00910000     -33.88970000     -72.51080000
H      -43.14180000     -33.33970000     -71.26880000
C      -44.86770000     -34.97360000     -69.72130000
H      -43.97780000     -35.63520000     -69.44830000
H      -44.50740000     -34.04940000     -69.99130000
C      -45.46610000     -35.51530000     -71.04200000
C      -46.63700000     -36.24690000     -71.02300000
C      -45.02140000     -35.20630000     -72.39960000
H      -47.22280000     -36.44970000     -70.22220000
C      -45.90630000     -35.74280000     -73.28500000
C      -44.07890000     -34.30060000     -73.02040000
C      -44.24360000     -34.34910000     -74.36130000
S      -47.24430000     -36.59100000     -72.61820000
S      -45.56590000     -35.36680000     -74.97300000
H      -43.65930000     -33.70270000     -75.04740000
