40
Properties=species:S:1:pos:R:3 #=T CELL(abcABC):=T 1.889726e+02=T 90.00000=T Traj:=T positionsangstrom=T Step:=T 0=T Bead:=T pbc="F F F"
C      -43.25730000     -29.81510000     -70.08670000
C      -44.07530000     -30.60850000     -69.33400000
C      -43.74010000     -31.95350000     -69.02940000
C      -42.57380000     -32.50530000     -69.55310000
C      -41.79350000     -31.66310000     -70.29220000
C      -42.02890000     -30.30130000     -70.49890000
H      -43.62950000     -28.79570000     -70.22910000
H      -44.37860000     -32.66500000     -68.51730000
H      -40.84870000     -32.01910000     -70.65940000
H      -41.41750000     -29.60190000     -71.07540000
C      -42.24660000     -33.96760000     -69.27850000
H      -42.99450000     -34.43330000     -68.59730000
H      -41.34220000     -34.09460000     -68.78490000
C      -45.40600000     -29.99200000     -68.90740000
H      -45.31930000     -29.52610000     -67.92870000
H      -45.84450000     -29.31310000     -69.68300000
S      -41.91890000     -34.90270000     -70.81150000
S      -46.71300000     -31.31820000     -68.45420000
C      -43.52980000     -35.33800000     -71.59590000
H      -43.37990000     -36.18360000     -72.24680000
H      -44.18310000     -35.81430000     -70.89410000
C      -46.82490000     -32.09750000     -70.10880000
H      -45.97980000     -31.80340000     -70.70870000
H      -47.64440000     -31.68720000     -70.64640000
C      -46.97780000     -33.59960000     -70.10590000
H      -46.06850000     -34.10740000     -69.87520000
H      -47.61330000     -33.86530000     -69.27080000
C      -44.11150000     -34.10300000     -72.29030000
H      -43.28410000     -33.60660000     -72.91280000
H      -44.33350000     -33.32670000     -71.62790000
C      -45.31730000     -34.46780000     -73.09730000
C      -45.19150000     -34.93920000     -74.45420000
C      -46.72920000     -34.50090000     -72.65020000
H      -44.30210000     -34.91720000     -75.00660000
C      -47.52130000     -35.05080000     -73.62510000
C      -47.46590000     -34.15590000     -71.42250000
C      -48.81240000     -34.36810000     -71.68480000
S      -46.74900000     -35.43320000     -75.10030000
S      -49.23820000     -35.00370000     -73.27350000
H      -49.54690000     -34.18700000     -70.92380000
