40
Properties=species:S:1:pos:R:3 #=T CELL(abcABC):=T 1.889726e+02=T 90.00000=T Traj:=T positionsangstrom=T Step:=T 0=T Bead:=T pbc="F F F"
C      -44.96490000     -31.12320000     -70.27840000
C      -44.67180000     -32.16800000     -69.34380000
C      -43.74930000     -33.18530000     -69.62520000
C      -42.97360000     -32.99850000     -70.76630000
C      -43.19550000     -31.95550000     -71.66480000
C      -44.28390000     -31.07260000     -71.46250000
H      -45.78490000     -30.48620000     -69.94190000
H      -43.45650000     -33.89050000     -68.83000000
H      -42.71820000     -31.90100000     -72.64970000
H      -44.42540000     -30.25180000     -72.16390000
C      -41.87580000     -34.09950000     -70.94030000
H      -41.49940000     -34.29750000     -69.99460000
H      -41.15780000     -33.65400000     -71.51090000
C      -45.38640000     -32.29020000     -68.03000000
H      -45.10980000     -33.21360000     -67.59040000
H      -44.98220000     -31.51130000     -67.32740000
S      -42.37970000     -35.43990000     -72.02270000
S      -47.18590000     -32.19760000     -68.07700000
C      -43.79000000     -36.25240000     -71.14850000
H      -43.46710000     -37.32750000     -70.98710000
H      -44.01900000     -35.77470000     -70.20840000
C      -47.70170000     -33.92460000     -68.55670000
H      -48.77960000     -34.09470000     -68.66080000
H      -47.40230000     -34.68380000     -67.77120000
C      -47.09400000     -34.51060000     -69.86630000
H      -46.04670000     -34.86230000     -69.65470000
H      -47.72240000     -35.27770000     -70.26370000
C      -45.03820000     -36.24090000     -71.96840000
H      -45.85130000     -36.44150000     -71.20620000
H      -44.93740000     -37.02720000     -72.67540000
C      -45.32080000     -34.97040000     -72.73080000
C      -44.95670000     -34.85950000     -73.99610000
C      -46.14920000     -33.81700000     -72.26310000
H      -44.44390000     -35.66470000     -74.55710000
C      -46.32810000     -32.90880000     -73.21720000
C      -47.03010000     -33.50020000     -71.07720000
C      -47.87150000     -32.45630000     -71.28950000
S      -45.41290000     -33.26610000     -74.68380000
S      -47.58610000     -31.70710000     -72.86840000
H      -48.72580000     -32.20930000     -70.69240000
