40
Properties=species:S:1:pos:R:3 #=T CELL(abcABC):=T 1.889726e+02=T 90.00000=T Traj:=T positionsangstrom=T Step:=T 0=T Bead:=T pbc="F F F"
C      -44.93410000     -31.07790000     -70.24320000
C      -44.64480000     -32.06900000     -69.25480000
C      -43.60240000     -33.04650000     -69.50270000
C      -43.06390000     -33.09650000     -70.79400000
C      -43.35690000     -32.12000000     -71.73640000
C      -44.24660000     -31.08250000     -71.48600000
H      -45.59600000     -30.24650000     -69.97170000
H      -43.54750000     -33.73630000     -68.66630000
H      -42.80370000     -31.95310000     -72.61090000
H      -44.37440000     -30.28620000     -72.19380000
C      -41.87470000     -33.94890000     -71.14570000
H      -41.29410000     -34.41620000     -70.28290000
H      -41.01350000     -33.53150000     -71.85570000
C      -45.38690000     -31.98240000     -67.97360000
H      -44.97460000     -32.75840000     -67.27760000
H      -45.40950000     -30.95800000     -67.55450000
S      -42.33850000     -35.56290000     -72.05380000
S      -47.30980000     -32.18200000     -68.05050000
C      -43.75370000     -36.11280000     -71.09950000
H      -43.54550000     -36.97990000     -70.48820000
H      -43.94940000     -35.33160000     -70.43710000
C      -47.64890000     -33.95920000     -68.63500000
H      -48.67940000     -33.92490000     -68.83270000
H      -47.42160000     -34.59000000     -67.76490000
C      -46.81550000     -34.41510000     -69.85340000
H      -45.81470000     -34.39120000     -69.61850000
H      -46.96460000     -35.54910000     -69.77460000
C      -45.02480000     -36.30240000     -71.95420000
H      -45.88860000     -36.36760000     -71.36600000
H      -45.12850000     -37.28770000     -72.54620000
C      -45.35460000     -35.03010000     -72.79220000
C      -44.87870000     -34.77500000     -74.02670000
C      -46.25390000     -33.98470000     -72.27080000
H      -44.29200000     -35.39030000     -74.62290000
C      -46.39240000     -32.99340000     -73.23450000
C      -47.00880000     -33.64260000     -71.10850000
C      -47.77850000     -32.51130000     -71.22350000
S      -45.53060000     -33.34180000     -74.75540000
S      -47.56320000     -31.67560000     -72.76330000
H      -48.49090000     -32.22820000     -70.44080000
