40
Properties=species:S:1:pos:R:3 #=T CELL(abcABC):=T 1.889726e+02=T 90.00000=T Traj:=T positionsangstrom=T Step:=T 0=T Bead:=T pbc="F F F"
C      -44.84940000     -31.19000000     -70.27830000
C      -44.57450000     -32.08180000     -69.24870000
C      -43.45550000     -32.97550000     -69.42090000
C      -42.83730000     -33.07230000     -70.62730000
C      -43.19620000     -32.23430000     -71.66020000
C      -44.22070000     -31.31490000     -71.50470000
H      -45.65380000     -30.45120000     -70.20000000
H      -43.16600000     -33.61450000     -68.61630000
H      -42.64510000     -32.32150000     -72.59520000
H      -44.47720000     -30.50710000     -72.17860000
C      -41.67720000     -33.97220000     -70.86750000
H      -41.19330000     -34.26190000     -69.93970000
H      -40.86160000     -33.63850000     -71.44820000
C      -45.31810000     -32.13900000     -67.88430000
H      -45.16210000     -33.08670000     -67.37090000
H      -44.99300000     -31.31300000     -67.29380000
S      -42.26430000     -35.53560000     -71.80810000
S      -47.19050000     -31.97640000     -68.23030000
C      -43.88440000     -35.89480000     -70.86870000
H      -43.58610000     -36.69500000     -70.09810000
H      -44.21290000     -35.03150000     -70.32400000
C      -47.71900000     -33.64180000     -68.64090000
H      -48.72900000     -33.49460000     -68.86520000
H      -47.63410000     -34.44850000     -67.82250000
C      -46.94920000     -34.17120000     -69.87770000
H      -45.94090000     -34.23190000     -69.63830000
H      -47.31510000     -35.27280000     -70.01840000
C      -45.01650000     -36.27920000     -71.76790000
H      -45.76710000     -36.57920000     -70.94120000
H      -44.82070000     -37.22760000     -72.33000000
C      -45.52690000     -35.15320000     -72.63560000
C      -45.13810000     -35.08120000     -73.91550000
C      -46.35620000     -33.91060000     -72.33620000
H      -44.59250000     -35.86170000     -74.44570000
C      -46.69900000     -33.19490000     -73.47750000
C      -47.03120000     -33.43420000     -71.18620000
C      -47.66620000     -32.20150000     -71.41590000
S      -45.67330000     -33.63610000     -74.83140000
S      -47.57600000     -31.69330000     -73.06570000
H      -48.50860000     -31.85200000     -70.82580000
