40
Properties=species:S:1:pos:R:3 #=T CELL(abcABC):=T 1.889726e+02=T 90.00000=T Traj:=T positionsangstrom=T Step:=T 0=T Bead:=T pbc="F F F"
C      -44.80480000     -31.27260000     -70.30470000
C      -44.49990000     -32.06200000     -69.18120000
C      -43.45290000     -32.97290000     -69.37820000
C      -42.68820000     -33.01270000     -70.58760000
C      -43.00660000     -32.15570000     -71.63750000
C      -44.08010000     -31.26790000     -71.47770000
H      -45.74230000     -30.63970000     -70.31300000
H      -43.13250000     -33.58420000     -68.55850000
H      -42.45750000     -32.13200000     -72.51640000
H      -44.42180000     -30.76450000     -72.36480000
C      -41.68110000     -34.09110000     -70.80340000
H      -41.36740000     -34.52360000     -69.83160000
H      -40.75390000     -33.75520000     -71.34880000
C      -45.29420000     -32.06460000     -67.89910000
H      -45.08970000     -32.97790000     -67.35600000
H      -45.07670000     -31.31200000     -67.14270000
S      -42.38330000     -35.47150000     -71.77850000
S      -47.05500000     -31.85810000     -68.14650000
C      -43.88340000     -35.99230000     -70.81350000
H      -43.63450000     -36.86730000     -70.18280000
H      -44.11610000     -35.23630000     -70.09870000
C      -47.84620000     -33.47220000     -68.66050000
H      -48.92830000     -33.27180000     -68.82840000
H      -47.85430000     -34.17280000     -67.75530000
C      -47.20960000     -34.18120000     -69.88100000
H      -46.16870000     -34.34350000     -69.53880000
H      -47.62660000     -35.20360000     -69.90660000
C      -45.21450000     -36.26460000     -71.65960000
H      -46.06640000     -36.28810000     -71.06010000
H      -45.14000000     -37.22950000     -72.21600000
C      -45.43720000     -35.09260000     -72.66880000
C      -45.02470000     -35.05800000     -73.99080000
C      -46.24410000     -33.91800000     -72.30550000
H      -44.44040000     -35.78920000     -74.50730000
C      -46.46420000     -33.11260000     -73.42370000
C      -47.11670000     -33.52590000     -71.18460000
C      -47.87510000     -32.39850000     -71.53310000
S      -45.80290000     -33.71550000     -74.93950000
S      -47.53430000     -31.80530000     -73.17210000
H      -48.45530000     -31.83570000     -70.87100000
