40
Properties=species:S:1:pos:R:3 #=T CELL(abcABC):=T 1.889726e+02=T 90.00000=T Traj:=T positionsangstrom=T Step:=T 0=T Bead:=T pbc="F F F"
C      -44.74030000     -31.17760000     -70.24600000
C      -44.49790000     -32.08080000     -69.21820000
C      -43.46350000     -32.95240000     -69.43310000
C      -42.74980000     -33.02880000     -70.64800000
C      -43.04160000     -32.11120000     -71.68160000
C      -43.98330000     -31.16250000     -71.42710000
H      -45.41690000     -30.34390000     -69.99900000
H      -43.22930000     -33.74180000     -68.67460000
H      -42.56130000     -32.13170000     -72.66710000
H      -44.07310000     -30.36550000     -72.12260000
C      -41.72860000     -34.12230000     -70.73340000
H      -41.41930000     -34.42550000     -69.74870000
H      -40.90270000     -33.75990000     -71.32200000
C      -45.29120000     -32.08320000     -67.88980000
H      -45.06720000     -33.00880000     -67.38180000
H      -44.90910000     -31.21340000     -67.27330000
S      -42.40950000     -35.57310000     -71.78560000
S      -47.17900000     -31.78340000     -68.11780000
C      -43.96690000     -35.94410000     -70.80120000
H      -43.67540000     -36.65870000     -70.06240000
H      -44.18840000     -34.98650000     -70.27000000
C      -47.83030000     -33.44150000     -68.79320000
H      -48.86910000     -33.18920000     -69.11850000
H      -47.88370000     -34.02400000     -67.93900000
C      -47.10120000     -34.17060000     -69.88240000
H      -46.00150000     -34.40490000     -69.69970000
H      -47.56010000     -35.13130000     -70.01280000
C      -45.16680000     -36.39700000     -71.76930000
H      -46.00170000     -36.90200000     -71.19330000
H      -44.77310000     -37.21340000     -72.41310000
C      -45.57050000     -35.17600000     -72.70630000
C      -45.12300000     -35.16210000     -74.03100000
C      -46.34990000     -34.01330000     -72.37460000
H      -44.57080000     -35.83490000     -74.59120000
C      -46.47310000     -33.09740000     -73.42040000
C      -47.08850000     -33.49290000     -71.18090000
C      -47.79660000     -32.31590000     -71.44270000
S      -45.56960000     -33.68790000     -74.87170000
S      -47.60110000     -31.82910000     -73.12680000
H      -48.21830000     -31.69000000     -70.75310000
