40
Properties=species:S:1:pos:R:3 #=T CELL(abcABC):=T 1.889726e+02=T 90.00000=T Traj:=T positionsangstrom=T Step:=T 0=T Bead:=T pbc="F F F"
C      -43.74360000     -29.80160000     -71.54820000
C      -43.95020000     -30.42880000     -70.28770000
C      -43.15470000     -31.50650000     -69.91790000
C      -42.17990000     -32.03530000     -70.74790000
C      -41.96270000     -31.51530000     -72.04570000
C      -42.67090000     -30.29300000     -72.38030000
H      -44.22260000     -28.89320000     -71.86000000
H      -43.20070000     -31.94950000     -68.94580000
H      -41.21150000     -31.92260000     -72.68330000
H      -42.34880000     -29.72860000     -73.31290000
C      -41.41720000     -33.27990000     -70.35730000
H      -41.63700000     -33.68340000     -69.40800000
H      -40.33350000     -33.09570000     -70.33700000
C      -44.96870000     -29.89810000     -69.30290000
H      -44.47170000     -29.40280000     -68.43750000
H      -45.70980000     -29.18140000     -69.69510000
S      -41.74820000     -34.75890000     -71.54120000
S      -45.86610000     -31.25220000     -68.39310000
C      -43.51270000     -35.02550000     -71.14440000
H      -43.72940000     -36.10810000     -71.31450000
H      -43.56890000     -34.83020000     -70.06780000
C      -46.95020000     -32.10740000     -69.58920000
H      -46.70900000     -31.57730000     -70.51420000
H      -47.94500000     -31.96870000     -69.29110000
C      -46.69510000     -33.60850000     -69.56200000
H      -45.60650000     -33.85130000     -69.70910000
H      -47.08290000     -34.10710000     -68.66790000
C      -44.39640000     -34.13080000     -72.03120000
H      -43.74520000     -33.81570000     -72.90650000
H      -44.91200000     -33.30510000     -71.58410000
C      -45.70400000     -34.72730000     -72.63010000
C      -45.69800000     -35.43060000     -73.86390000
C      -46.96970000     -34.66430000     -71.98490000
H      -44.81740000     -35.61830000     -74.46440000
C      -47.90340000     -35.36940000     -72.77770000
C      -47.47980000     -34.19140000     -70.71780000
C      -48.86820000     -34.33090000     -70.61870000
S      -47.34460000     -35.99190000     -74.28860000
S      -49.47120000     -35.15150000     -72.00150000
H      -49.45490000     -34.00820000     -69.78990000
