40
Properties=species:S:1:pos:R:3 #=T CELL(abcABC):=T 1.889726e+02=T 90.00000=T Traj:=T positionsangstrom=T Step:=T 0=T Bead:=T pbc="F F F"
C      -43.46430000     -29.67390000     -71.34200000
C      -43.85850000     -30.43820000     -70.24270000
C      -43.13180000     -31.64640000     -70.01480000
C      -42.06120000     -32.07770000     -70.81500000
C      -41.64710000     -31.24990000     -71.91010000
C      -42.40950000     -30.09960000     -72.13440000
H      -43.94800000     -28.71390000     -71.55210000
H      -43.44470000     -32.22280000     -69.15190000
H      -40.76830000     -31.58400000     -72.43470000
H      -42.12910000     -29.41400000     -72.90310000
C      -41.41680000     -33.37430000     -70.38690000
H      -41.86350000     -33.74200000     -69.43530000
H      -40.35380000     -33.27380000     -70.34110000
C      -44.89500000     -29.90830000     -69.28930000
H      -44.44280000     -29.34880000     -68.45950000
H      -45.63810000     -29.27590000     -69.89490000
S      -41.73770000     -34.69240000     -71.58620000
S      -45.99820000     -31.16350000     -68.44820000
C      -43.51430000     -35.11990000     -71.57760000
H      -43.46940000     -36.14800000     -71.96200000
H      -43.73880000     -35.22380000     -70.50130000
C      -46.95420000     -32.04390000     -69.73910000
H      -46.68730000     -31.60450000     -70.65540000
H      -48.02350000     -31.94880000     -69.52050000
C      -46.58770000     -33.50240000     -69.64520000
H      -45.55430000     -33.59780000     -69.93660000
H      -46.64670000     -34.01660000     -68.69300000
C      -44.45780000     -34.07650000     -72.22520000
H      -44.05110000     -33.72380000     -73.15450000
H      -44.47240000     -33.13730000     -71.58750000
C      -45.79730000     -34.68240000     -72.70480000
C      -45.92810000     -35.33700000     -73.92410000
C      -47.02920000     -34.73580000     -71.93810000
H      -45.34340000     -35.21130000     -74.85630000
C      -47.98860000     -35.33540000     -72.62620000
C      -47.44940000     -34.30210000     -70.63580000
C      -48.82750000     -34.55670000     -70.48170000
S      -47.55650000     -35.95180000     -74.22800000
S      -49.45960000     -35.42800000     -71.86320000
H      -49.50800000     -34.46910000     -69.59960000
