40
Properties=species:S:1:pos:R:3 #=T CELL(abcABC):=T 1.889726e+02=T 90.00000=T Traj:=T positionsangstrom=T Step:=T 0=T Bead:=T pbc="F F F"
C      -44.69530000     -31.11180000     -70.15130000
C      -44.40140000     -32.07570000     -69.22770000
C      -43.41980000     -33.06410000     -69.48550000
C      -42.78490000     -33.17300000     -70.76840000
C      -43.00410000     -32.09520000     -71.66550000
C      -44.08760000     -31.23780000     -71.40580000
H      -45.45930000     -30.36990000     -70.08120000
H      -43.17550000     -33.73020000     -68.66850000
H      -42.48800000     -32.05140000     -72.62170000
H      -44.22630000     -30.46000000     -72.14490000
C      -41.79590000     -34.20330000     -71.07840000
H      -41.36170000     -34.70130000     -70.21780000
H      -41.02130000     -33.81310000     -71.72070000
C      -45.05920000     -32.28870000     -67.89390000
H      -44.97370000     -33.34220000     -67.59140000
H      -44.65210000     -31.71070000     -67.02170000
S      -42.57190000     -35.60250000     -72.12120000
S      -46.93020000     -31.79610000     -68.13860000
C      -43.89600000     -36.36130000     -71.10930000
H      -43.58610000     -37.37200000     -70.91490000
H      -43.86340000     -35.80130000     -70.15850000
C      -47.54640000     -33.46480000     -68.47140000
H      -48.59850000     -33.34570000     -68.67240000
H      -47.39490000     -34.02920000     -67.58900000
C      -46.98320000     -34.12320000     -69.75260000
H      -45.95190000     -34.46600000     -69.50670000
H      -47.41120000     -35.17650000     -69.72470000
C      -45.25430000     -36.29750000     -71.90090000
H      -46.08080000     -36.55320000     -71.24490000
H      -45.23190000     -37.11610000     -72.64960000
C      -45.53000000     -35.07640000     -72.68360000
C      -45.31270000     -35.01020000     -74.06030000
C      -46.38890000     -33.96300000     -72.27350000
H      -44.72880000     -35.71850000     -74.62030000
C      -46.59400000     -33.02170000     -73.32870000
C      -47.10020000     -33.51940000     -71.08120000
C      -47.75990000     -32.32290000     -71.24310000
S      -45.84770000     -33.54400000     -74.78230000
S      -47.56490000     -31.66690000     -72.88400000
H      -48.33530000     -31.94120000     -70.49320000
