40
Properties=species:S:1:pos:R:3 #=T CELL(abcABC):=T 1.889726e+02=T 90.00000=T Traj:=T positionsangstrom=T Step:=T 0=T Bead:=T pbc="F F F"
C      -44.56970000     -31.08160000     -70.23430000
C      -44.36100000     -32.00920000     -69.23840000
C      -43.51800000     -33.13140000     -69.52780000
C      -42.87280000     -33.22150000     -70.80250000
C      -43.16590000     -32.22340000     -71.77880000
C      -44.01440000     -31.14890000     -71.49220000
H      -45.19020000     -30.23280000     -69.96840000
H      -43.39740000     -33.88450000     -68.82280000
H      -42.72580000     -32.23560000     -72.78950000
H      -44.24290000     -30.37600000     -72.23220000
C      -41.86300000     -34.29490000     -71.18190000
H      -41.42830000     -34.77890000     -70.29470000
H      -41.04600000     -33.72720000     -71.66340000
C      -45.06660000     -31.83330000     -67.88160000
H      -44.63650000     -32.57200000     -67.22330000
H      -44.85170000     -30.86270000     -67.43490000
S      -42.45190000     -35.54650000     -72.25290000
S      -46.87230000     -31.91190000     -68.03170000
C      -43.89770000     -36.01570000     -71.13750000
H      -43.69910000     -36.88280000     -70.47390000
H      -44.08920000     -35.21070000     -70.44430000
C      -47.47190000     -33.57590000     -68.40300000
H      -48.59560000     -33.48680000     -68.30580000
H      -47.19850000     -34.24480000     -67.50990000
C      -46.94010000     -34.28020000     -69.64140000
H      -45.87360000     -34.23090000     -69.58350000
H      -47.32100000     -35.30220000     -69.71580000
C      -45.20680000     -36.30350000     -71.95610000
H      -46.03750000     -36.63330000     -71.26390000
H      -44.93140000     -37.02390000     -72.70010000
C      -45.62860000     -35.06530000     -72.75610000
C      -45.25740000     -34.99520000     -74.08150000
C      -46.38850000     -34.02230000     -72.23260000
H      -44.69280000     -35.71960000     -74.64410000
C      -46.69170000     -33.14290000     -73.29680000
C      -47.07950000     -33.57260000     -71.02850000
C      -47.82290000     -32.44040000     -71.19360000
S      -45.77390000     -33.45000000     -74.74000000
S      -47.75050000     -31.79380000     -72.80070000
H      -48.27000000     -31.96260000     -70.40200000
