40
Properties=species:S:1:pos:R:3 #=T CELL(abcABC):=T 1.889726e+02=T 90.00000=T Traj:=T positionsangstrom=T Step:=T 0=T Bead:=T pbc="F F F"
C      -44.62760000     -31.12220000     -70.38330000
C      -44.26540000     -31.99460000     -69.35090000
C      -43.31200000     -32.96620000     -69.64360000
C      -42.75140000     -33.07940000     -70.86350000
C      -43.08080000     -32.16070000     -71.92120000
C      -43.94200000     -31.13490000     -71.58640000
H      -45.52490000     -30.49530000     -70.25670000
H      -43.06720000     -33.69200000     -68.82470000
H      -42.65350000     -32.24070000     -72.87460000
H      -44.37390000     -30.56460000     -72.41410000
C      -41.84490000     -34.22160000     -70.97970000
H      -41.65390000     -34.62700000     -70.01990000
H      -40.88610000     -33.95600000     -71.37620000
C      -45.00250000     -32.00870000     -68.01660000
H      -44.67280000     -32.88010000     -67.35820000
H      -44.76890000     -31.13500000     -67.39870000
S      -42.54030000     -35.51200000     -72.12680000
S      -46.87260000     -31.96270000     -68.02980000
C      -43.92520000     -36.23770000     -71.17770000
H      -43.67550000     -37.26600000     -70.87620000
H      -44.11070000     -35.63460000     -70.28860000
C      -47.31820000     -33.73790000     -68.41210000
H      -48.39630000     -33.80280000     -68.46860000
H      -46.97670000     -34.31370000     -67.60340000
C      -46.71110000     -34.30190000     -69.71470000
H      -45.58710000     -34.30140000     -69.53950000
H      -47.01570000     -35.37230000     -69.63250000
C      -45.21330000     -36.31050000     -71.96760000
H      -45.94350000     -36.61230000     -71.22030000
H      -45.26030000     -37.12730000     -72.71710000
C      -45.58230000     -35.01460000     -72.73480000
C      -45.21300000     -34.86060000     -74.05030000
C      -46.38610000     -33.95180000     -72.26590000
H      -44.59890000     -35.49630000     -74.72840000
C      -46.70660000     -33.04140000     -73.24760000
C      -47.04440000     -33.53580000     -70.96920000
C      -47.89250000     -32.47020000     -71.10230000
S      -46.01410000     -33.46480000     -74.78960000
S      -47.81720000     -31.77340000     -72.67220000
H      -48.36190000     -31.97800000     -70.22140000
