40
Properties=species:S:1:pos:R:3 #=T CELL(abcABC):=T 1.889726e+02=T 90.00000=T Traj:=T positionsangstrom=T Step:=T 0=T Bead:=T pbc="F F F"
C      -44.78860000     -31.21060000     -70.45880000
C      -44.33840000     -32.00620000     -69.34650000
C      -43.34710000     -32.93950000     -69.56060000
C      -42.69720000     -33.01320000     -70.80310000
C      -43.03680000     -32.12310000     -71.82700000
C      -44.16460000     -31.30930000     -71.72850000
H      -45.49080000     -30.36650000     -70.34030000
H      -42.98920000     -33.52440000     -68.70860000
H      -42.51560000     -32.17870000     -72.76250000
H      -44.35010000     -30.49940000     -72.47310000
C      -41.69220000     -34.07090000     -71.09190000
H      -41.29340000     -34.43350000     -70.13750000
H      -40.92740000     -33.73520000     -71.82780000
C      -44.98610000     -31.78240000     -67.97320000
H      -44.66440000     -32.45930000     -67.20290000
H      -44.81580000     -30.73550000     -67.69820000
S      -42.39610000     -35.52650000     -72.04330000
S      -46.85670000     -32.01330000     -68.09770000
C      -43.92650000     -36.05460000     -71.15480000
H      -43.66120000     -36.95640000     -70.59520000
H      -44.23400000     -35.35340000     -70.39270000
C      -47.19230000     -33.84680000     -68.40660000
H      -48.29520000     -33.97590000     -68.44390000
H      -46.75240000     -34.46370000     -67.57230000
C      -46.70880000     -34.37420000     -69.70190000
H      -45.67480000     -34.69440000     -69.64770000
H      -47.17660000     -35.35590000     -69.83080000
C      -45.11830000     -36.31510000     -72.04950000
H      -45.87750000     -36.70890000     -71.37690000
H      -44.94710000     -37.21750000     -72.69910000
C      -45.68530000     -35.12530000     -72.80140000
C      -45.46240000     -34.93650000     -74.16720000
C      -46.45890000     -34.03800000     -72.26360000
H      -44.82810000     -35.52030000     -74.86070000
C      -46.73390000     -33.04830000     -73.19310000
C      -47.03550000     -33.59280000     -70.95960000
C      -47.72680000     -32.40380000     -71.00730000
S      -46.14420000     -33.42300000     -74.76610000
S      -47.76150000     -31.77540000     -72.64140000
H      -48.41840000     -32.03710000     -70.19860000
