40
Properties=species:S:1:pos:R:3 #=T CELL(abcABC):=T 1.889726e+02=T 90.00000=T Traj:=T positionsangstrom=T Step:=T 0=T Bead:=T pbc="F F F"
C      -44.57590000     -30.73810000     -70.59120000
C      -44.17390000     -31.73860000     -69.75620000
C      -43.12370000     -32.59520000     -70.07430000
C      -42.58370000     -32.62260000     -71.37290000
C      -42.98690000     -31.61590000     -72.21640000
C      -43.86780000     -30.62260000     -71.79550000
H      -45.33710000     -30.06140000     -70.35780000
H      -42.84240000     -33.24580000     -69.24030000
H      -42.42190000     -31.54520000     -73.21720000
H      -44.07340000     -29.75070000     -72.38510000
C      -41.52830000     -33.61640000     -71.78730000
H      -40.74790000     -33.83880000     -71.04750000
H      -40.94670000     -33.23030000     -72.68000000
C      -44.70090000     -31.78410000     -68.35190000
H      -44.33660000     -32.72350000     -67.88190000
H      -44.37980000     -30.87640000     -67.85000000
S      -42.34790000     -35.22580000     -72.26520000
S      -46.54770000     -31.77010000     -68.36150000
C      -43.60050000     -35.53570000     -70.94490000
H      -43.19160000     -36.21470000     -70.14870000
H      -43.94980000     -34.59710000     -70.48340000
C      -46.93890000     -33.61950000     -68.13770000
H      -48.01360000     -33.59400000     -67.99100000
H      -46.51390000     -33.93140000     -67.20390000
C      -46.62740000     -34.54030000     -69.29210000
H      -45.58260000     -34.86570000     -69.28890000
H      -47.07870000     -35.56660000     -69.08480000
C      -44.85380000     -36.24230000     -71.57750000
H      -45.54210000     -36.59380000     -70.77280000
H      -44.55550000     -37.08960000     -72.17290000
C      -45.59910000     -35.21050000     -72.42300000
C      -45.42240000     -35.11760000     -73.79110000
C      -46.56880000     -34.26050000     -71.97300000
H      -44.92600000     -35.86650000     -74.45520000
C      -47.18480000     -33.52390000     -72.99490000
C      -47.10790000     -34.04720000     -70.64560000
C      -48.23680000     -33.18870000     -70.70840000
S      -46.47600000     -33.90190000     -74.60000000
S      -48.43350000     -32.54640000     -72.36520000
H      -48.79800000     -32.88240000     -69.84580000
