40
Properties=species:S:1:pos:R:3 #=T CELL(abcABC):=T 1.889726e+02=T 90.00000=T Traj:=T positionsangstrom=T Step:=T 0=T Bead:=T pbc="F F F"
C      -44.97300000     -30.99740000     -70.84940000
C      -44.32690000     -31.59290000     -69.73350000
C      -43.28400000     -32.47230000     -69.98840000
C      -42.69660000     -32.63150000     -71.21190000
C      -43.23740000     -31.88450000     -72.27560000
C      -44.33460000     -31.09000000     -72.11270000
H      -45.79560000     -30.23630000     -70.77410000
H      -42.90140000     -33.10070000     -69.21940000
H      -42.96140000     -32.11830000     -73.25810000
H      -44.74850000     -30.57150000     -72.99040000
C      -41.52770000     -33.65480000     -71.47190000
H      -41.29690000     -33.98180000     -70.39590000
H      -40.66290000     -33.14880000     -71.93080000
C      -44.77510000     -31.33220000     -68.32530000
H      -44.20790000     -31.93770000     -67.60740000
H      -44.69470000     -30.23980000     -68.10150000
S      -42.18620000     -34.99940000     -72.58670000
S      -46.56070000     -31.66070000     -68.07740000
C      -43.22560000     -35.74720000     -71.27150000
H      -42.62920000     -36.59350000     -70.82380000
H      -43.38000000     -35.07850000     -70.42750000
C      -46.55000000     -33.50950000     -67.98180000
H      -47.50840000     -33.73280000     -67.56150000
H      -45.77930000     -33.79430000     -67.33020000
C      -46.29740000     -34.33350000     -69.27470000
H      -45.23660000     -34.27790000     -69.52200000
H      -46.56110000     -35.35670000     -68.94070000
C      -44.65920000     -36.19450000     -71.62600000
H      -45.19530000     -36.26970000     -70.72000000
H      -44.65930000     -37.17810000     -72.08830000
C      -45.53390000     -35.21760000     -72.48780000
C      -45.39050000     -35.12340000     -73.84310000
C      -46.57280000     -34.37800000     -71.93920000
H      -44.57240000     -35.46610000     -74.40890000
C      -47.16210000     -33.62510000     -72.98210000
C      -46.96540000     -33.92320000     -70.61340000
C      -48.06300000     -33.09230000     -70.64770000
S      -46.69590000     -34.09580000     -74.57510000
S      -48.45790000     -32.64530000     -72.28270000
H      -48.67430000     -32.61760000     -69.83220000
