40
Properties=species:S:1:pos:R:3 #=T CELL(abcABC):=T 1.889726e+02=T 90.00000=T Traj:=T positionsangstrom=T Step:=T 0=T Bead:=T pbc="F F F"
C      -45.58490000     -31.03550000     -70.82250000
C      -44.61550000     -31.38650000     -69.93060000
C      -43.42370000     -31.95000000     -70.47330000
C      -43.12170000     -31.94070000     -71.83360000
C      -44.13200000     -31.53380000     -72.72560000
C      -45.34340000     -31.00190000     -72.21900000
H      -46.60130000     -30.72500000     -70.45840000
H      -42.57590000     -32.13550000     -69.80620000
H      -43.85250000     -31.31960000     -73.79440000
H      -46.04330000     -30.70400000     -73.00450000
C      -41.95920000     -32.73090000     -72.35130000
H      -41.19840000     -32.64100000     -71.60440000
H      -41.58290000     -32.24220000     -73.23440000
C      -44.79190000     -31.52540000     -68.42670000
H      -44.27050000     -32.39940000     -67.99340000
H      -44.48290000     -30.61330000     -67.98440000
S      -42.06220000     -34.52050000     -72.74440000
S      -46.55090000     -31.68740000     -68.00420000
C      -42.67440000     -35.29450000     -71.15970000
H      -41.93820000     -35.91230000     -70.69090000
H      -42.83830000     -34.48930000     -70.40890000
C      -46.65310000     -33.59030000     -67.82030000
H      -47.66070000     -33.73180000     -67.44620000
H      -46.04580000     -33.87010000     -66.96060000
C      -46.21820000     -34.43960000     -69.03210000
H      -45.12690000     -34.17560000     -69.09300000
H      -46.31610000     -35.45030000     -68.65010000
C      -44.07490000     -36.01760000     -71.24550000
H      -44.42120000     -36.24470000     -70.24770000
H      -43.76390000     -37.00650000     -71.71260000
C      -45.09870000     -35.26600000     -72.09730000
C      -44.88450000     -35.24060000     -73.49400000
C      -46.31110000     -34.57790000     -71.64340000
H      -44.24890000     -35.90020000     -74.00780000
C      -47.04610000     -34.21300000     -72.75270000
C      -46.87180000     -34.17710000     -70.36910000
C      -48.10110000     -33.54630000     -70.60610000
S      -46.21380000     -34.37640000     -74.27680000
S      -48.56880000     -33.41000000     -72.32600000
H      -48.70450000     -33.14320000     -69.88440000
