40
Properties=species:S:1:pos:R:3 #=T CELL(abcABC):=T 1.889726e+02=T 90.00000=T Traj:=T positionsangstrom=T Step:=T 0=T Bead:=T pbc="F F F"
C      -45.47000000     -30.76440000     -70.81790000
C      -44.59480000     -31.36420000     -69.92340000
C      -43.45780000     -31.95920000     -70.38190000
C      -43.25860000     -32.16840000     -71.76030000
C      -44.22940000     -31.73420000     -72.68190000
C      -45.37350000     -30.97340000     -72.20590000
H      -46.36400000     -30.33660000     -70.40910000
H      -42.76010000     -32.47110000     -69.69050000
H      -44.06400000     -31.90280000     -73.79210000
H      -46.12630000     -30.54630000     -72.90660000
C      -41.92510000     -32.58120000     -72.28500000
H      -41.02910000     -32.41320000     -71.63510000
H      -41.73730000     -32.09110000     -73.29710000
C      -44.89870000     -31.26790000     -68.37570000
H      -44.06200000     -31.79450000     -67.85900000
H      -44.82100000     -30.23930000     -67.98870000
S      -42.05070000     -34.47970000     -72.74970000
S      -46.62040000     -31.87070000     -67.98180000
C      -42.64160000     -35.24230000     -71.14220000
H      -41.88710000     -36.02610000     -70.99840000
H      -42.38370000     -34.40360000     -70.48450000
C      -46.86240000     -33.70930000     -67.90950000
H      -47.94310000     -33.78220000     -68.01220000
H      -46.53770000     -34.33210000     -67.03920000
C      -46.15510000     -34.42920000     -69.05860000
H      -45.15340000     -34.07110000     -69.13970000
H      -45.94280000     -35.52280000     -68.88280000
C      -43.99480000     -35.93280000     -71.21060000
H      -44.33800000     -36.05790000     -70.12370000
H      -43.86060000     -36.95170000     -71.56560000
C      -45.02490000     -35.22230000     -72.15890000
C      -44.97700000     -35.29600000     -73.57910000
C      -46.17130000     -34.45310000     -71.69490000
H      -44.18840000     -35.77330000     -74.07620000
C      -46.92850000     -34.06930000     -72.77960000
C      -46.81470000     -34.22820000     -70.40290000
C      -48.03840000     -33.68280000     -70.56780000
S      -46.21830000     -34.40320000     -74.33430000
S      -48.53130000     -33.39780000     -72.28790000
H      -48.74660000     -33.62840000     -69.80190000
