40
Properties=species:S:1:pos:R:3 #=T CELL(abcABC):=T 1.889726e+02=T 90.00000=T Traj:=T positionsangstrom=T Step:=T 0=T Bead:=T pbc="F F F"
C      -45.71470000     -30.92370000     -71.02050000
C      -44.86430000     -31.41650000     -70.00750000
C      -43.59690000     -31.88320000     -70.36720000
C      -43.18880000     -31.92790000     -71.70520000
C      -44.13630000     -31.50570000     -72.75060000
C      -45.35140000     -30.98940000     -72.35430000
H      -46.77190000     -30.74970000     -70.81930000
H      -42.87180000     -32.21930000     -69.63210000
H      -43.77140000     -31.48330000     -73.77070000
H      -46.02810000     -30.82120000     -73.18350000
C      -41.80280000     -32.45180000     -72.04840000
H      -41.11520000     -32.22410000     -71.14470000
H      -41.46510000     -31.97430000     -72.98710000
C      -45.12910000     -31.29280000     -68.54900000
H      -44.26180000     -31.63750000     -67.92590000
H      -45.31910000     -30.21920000     -68.25720000
S      -41.91870000     -34.21730000     -72.35290000
S      -46.72730000     -32.03050000     -67.92120000
C      -42.88980000     -35.14620000     -71.00070000
H      -42.04280000     -35.73620000     -70.53580000
H      -43.28700000     -34.34670000     -70.36240000
C      -46.51860000     -33.91450000     -68.01450000
H      -47.44370000     -34.47040000     -68.01590000
H      -45.93190000     -34.20580000     -67.13970000
C      -45.81060000     -34.45890000     -69.22170000
H      -44.86450000     -33.82290000     -69.30130000
H      -45.54320000     -35.52570000     -69.14250000
C      -43.99960000     -36.08880000     -71.47210000
H      -44.43880000     -36.52710000     -70.56520000
H      -43.61080000     -37.04530000     -71.97090000
C      -45.05010000     -35.42710000     -72.33960000
C      -45.14770000     -35.55960000     -73.72000000
C      -46.09320000     -34.61000000     -71.79700000
H      -44.51220000     -36.27380000     -74.32520000
C      -47.00130000     -34.10950000     -72.77830000
C      -46.58550000     -34.22520000     -70.49940000
C      -47.73170000     -33.48880000     -70.59370000
S      -46.50090000     -34.63860000     -74.39970000
S      -48.36290000     -33.14070000     -72.15480000
H      -48.26340000     -32.94950000     -69.79530000
