40
Properties=species:S:1:pos:R:3 #=T CELL(abcABC):=T 1.889726e+02=T 90.00000=T Traj:=T positionsangstrom=T Step:=T 0=T Bead:=T pbc="F F F"
C      -46.26970000     -32.63230000     -66.89590000
C      -45.12960000     -32.64010000     -67.73580000
C      -44.72630000     -33.80750000     -68.39050000
C      -45.49250000     -34.98420000     -68.20170000
C      -46.73230000     -34.97110000     -67.48490000
C      -47.01460000     -33.83400000     -66.71820000
H      -46.65710000     -31.77410000     -66.38440000
H      -43.88150000     -33.80940000     -69.07190000
H      -47.21830000     -35.88400000     -67.29620000
H      -47.85870000     -33.84190000     -65.92450000
C      -45.07410000     -36.28510000     -68.96760000
H      -44.96120000     -37.10080000     -68.25620000
H      -44.14130000     -36.04810000     -69.53900000
C      -44.30290000     -31.36400000     -67.84170000
H      -44.82480000     -30.41260000     -67.61560000
H      -43.57990000     -31.33960000     -67.08180000
S      -46.41070000     -36.80600000     -70.08550000
S      -43.18580000     -31.12760000     -69.25600000
C      -45.96580000     -35.94930000     -71.65870000
H      -44.87690000     -35.99990000     -71.78600000
H      -46.30480000     -36.44290000     -72.56980000
C      -44.16360000     -31.44810000     -70.88100000
H      -44.46460000     -30.51840000     -71.36020000
H      -45.08120000     -31.84090000     -70.44620000
C      -43.40830000     -32.47550000     -71.77760000
H      -42.35960000     -32.21950000     -71.81600000
H      -43.40130000     -33.52710000     -71.37090000
C      -46.39260000     -34.48520000     -71.66520000
H      -45.73940000     -33.92620000     -70.99640000
H      -47.47720000     -34.27320000     -71.34180000
C      -46.26720000     -33.94290000     -73.13000000
C      -47.24800000     -34.13180000     -74.01800000
C      -45.25980000     -33.02920000     -73.65640000
H      -48.19330000     -34.63740000     -74.00710000
C      -45.56100000     -32.60610000     -74.91580000
C      -43.97720000     -32.48900000     -73.19580000
C      -43.32860000     -31.84450000     -74.17420000
S      -47.08750000     -33.14500000     -75.45920000
S      -44.32050000     -31.54760000     -75.62150000
H      -42.28080000     -31.49430000     -74.10630000
