40
Properties=species:S:1:pos:R:3 #=T CELL(abcABC):=T 1.889726e+02=T 90.00000=T Traj:=T positionsangstrom=T Step:=T 0=T Bead:=T pbc="F F F"
C      -45.74290000     -31.00460000     -70.55210000
C      -44.85030000     -31.48520000     -69.65450000
C      -43.57240000     -31.87170000     -70.07300000
C      -43.24640000     -31.82120000     -71.38530000
C      -44.18100000     -31.41520000     -72.31720000
C      -45.44280000     -31.02800000     -71.90650000
H      -46.71130000     -30.76900000     -70.44010000
H      -42.82290000     -32.08860000     -69.38510000
H      -43.89050000     -31.42500000     -73.34430000
H      -46.10240000     -30.70470000     -72.66070000
C      -41.90550000     -32.22100000     -71.94390000
H      -41.25110000     -32.26350000     -71.14680000
H      -41.52160000     -31.56100000     -72.64570000
C      -45.19880000     -31.53050000     -68.17210000
H      -44.41710000     -32.03020000     -67.55330000
H      -45.25930000     -30.51810000     -67.77520000
S      -42.02160000     -33.87190000     -72.70470000
S      -46.81100000     -32.15050000     -67.78260000
C      -42.67430000     -34.91930000     -71.37660000
H      -41.89960000     -35.55730000     -70.94420000
H      -43.05140000     -34.19360000     -70.58460000
C      -46.62600000     -33.94150000     -68.11590000
H      -47.65000000     -34.25780000     -68.02960000
H      -46.10980000     -34.37320000     -67.19200000
C      -45.94540000     -34.45050000     -69.35750000
H      -44.94760000     -34.08560000     -69.45540000
H      -45.80750000     -35.55390000     -69.26280000
C      -43.77290000     -35.95560000     -71.64110000
H      -44.11950000     -36.39700000     -70.76440000
H      -43.47440000     -36.74240000     -72.35000000
C      -44.94290000     -35.29630000     -72.39340000
C      -44.93490000     -35.41770000     -73.77340000
C      -46.11260000     -34.63250000     -71.88300000
H      -44.16140000     -35.83950000     -74.31100000
C      -46.89200000     -34.11010000     -72.92140000
C      -46.69550000     -34.34010000     -70.61350000
C      -47.93890000     -33.75120000     -70.74660000
S      -46.23060000     -34.58250000     -74.50110000
S      -48.41550000     -33.52300000     -72.40200000
H      -48.57970000     -33.37400000     -69.99600000
