40
Properties=species:S:1:pos:R:3 #=T CELL(abcABC):=T 1.889726e+02=T 90.00000=T Traj:=T positionsangstrom=T Step:=T 0=T Bead:=T pbc="F F F"
C      -46.46330000     -32.13350000     -68.03120000
C      -45.10470000     -32.54220000     -67.83730000
C      -44.82250000     -33.93660000     -67.95640000
C      -45.84250000     -34.90260000     -68.23310000
C      -47.19780000     -34.43270000     -68.37930000
C      -47.48060000     -33.10200000     -68.22380000
H      -46.65800000     -31.06910000     -67.97690000
H      -43.75390000     -34.15840000     -67.79630000
H      -47.87910000     -35.23100000     -68.58380000
H      -48.53100000     -32.79850000     -68.26560000
C      -45.51780000     -36.43600000     -68.49890000
H      -45.96740000     -36.96660000     -67.70430000
H      -44.53290000     -36.65490000     -68.41440000
C      -43.94390000     -31.57480000     -67.70580000
H      -44.52770000     -30.65410000     -67.44780000
H      -43.26140000     -31.70910000     -66.81480000
S      -46.17710000     -36.95860000     -70.18250000
S      -42.79720000     -31.40280000     -69.15020000
C      -45.51500000     -35.78890000     -71.42450000
H      -44.44930000     -35.54390000     -71.25260000
H      -45.51050000     -36.39550000     -72.33480000
C      -43.89680000     -31.58600000     -70.63410000
H      -43.78390000     -30.67680000     -71.22300000
H      -44.93360000     -31.57880000     -70.38120000
C      -43.58920000     -32.85000000     -71.49660000
H      -42.50770000     -32.97280000     -71.44950000
H      -43.87570000     -33.66980000     -70.88350000
C      -46.43040000     -34.54550000     -71.73300000
H      -46.32160000     -33.83090000     -70.89280000
H      -47.48980000     -34.92000000     -71.58750000
C      -46.37680000     -33.96830000     -73.15090000
C      -47.35510000     -34.11760000     -74.09270000
C      -45.34980000     -33.04630000     -73.49380000
H      -48.32660000     -34.49140000     -73.90910000
C      -45.57360000     -32.52280000     -74.75080000
C      -44.09030000     -32.67760000     -72.89410000
C      -43.43800000     -31.77530000     -73.71290000
S      -47.00570000     -33.14100000     -75.52260000
S      -44.35050000     -31.50660000     -75.23170000
H      -42.48680000     -31.28460000     -73.51700000
