40
Properties=species:S:1:pos:R:3 #=T CELL(abcABC):=T 1.889726e+02=T 90.00000=T Traj:=T positionsangstrom=T Step:=T 0=T Bead:=T pbc="F F F"
C      -46.49800000     -32.03840000     -68.36600000
C      -45.22090000     -32.48760000     -68.05300000
C      -44.90820000     -33.86560000     -68.14230000
C      -45.83150000     -34.88380000     -68.42380000
C      -47.17810000     -34.45710000     -68.53140000
C      -47.47510000     -33.07140000     -68.50670000
H      -46.71610000     -30.97900000     -68.39040000
H      -43.86830000     -34.15200000     -67.90750000
H      -47.97480000     -35.17530000     -68.73890000
H      -48.51450000     -32.71570000     -68.61660000
C      -45.48230000     -36.34320000     -68.57230000
H      -45.91090000     -37.00420000     -67.74980000
H      -44.35220000     -36.60880000     -68.66310000
C      -44.23710000     -31.53520000     -67.62440000
H      -44.54600000     -30.54080000     -67.49930000
H      -43.64640000     -31.82680000     -66.73760000
S      -46.14680000     -37.10230000     -70.16390000
S      -42.81660000     -31.50700000     -69.05890000
C      -45.58840000     -35.85870000     -71.54090000
H      -44.64360000     -35.38620000     -71.28590000
H      -45.41010000     -36.42510000     -72.45900000
C      -43.75690000     -31.50930000     -70.65450000
H      -43.28470000     -30.74800000     -71.31780000
H      -44.81620000     -31.25860000     -70.51920000
C      -43.63840000     -32.86490000     -71.35460000
H      -42.62180000     -33.22990000     -71.45810000
H      -44.26970000     -33.66140000     -70.96500000
C      -46.60250000     -34.63830000     -71.70750000
H      -46.54190000     -33.96700000     -70.88910000
H      -47.65070000     -34.97010000     -71.74350000
C      -46.38900000     -33.88450000     -72.99760000
C      -47.34140000     -33.98960000     -73.92500000
C      -45.25700000     -33.09400000     -73.38330000
H      -48.16900000     -34.73280000     -73.86180000
C      -45.42260000     -32.62320000     -74.68310000
C      -44.07100000     -32.54450000     -72.78050000
C      -43.45460000     -31.68860000     -73.64740000
S      -46.93830000     -33.12100000     -75.40800000
S      -44.27120000     -31.49170000     -75.15620000
H      -42.52400000     -31.12770000     -73.48410000
