40
Properties=species:S:1:pos:R:3 #=T CELL(abcABC):=T 1.889726e+02=T 90.00000=T Traj:=T positionsangstrom=T Step:=T 0=T Bead:=T pbc="F F F"
C      -41.72090000     -31.94860000     -70.09960000
C      -42.77530000     -32.30850000     -69.18040000
C      -43.12690000     -33.66400000     -69.02440000
C      -42.47170000     -34.65730000     -69.79320000
C      -41.42650000     -34.31860000     -70.59090000
C      -40.97060000     -32.98490000     -70.66980000
H      -41.32320000     -30.89840000     -70.18890000
H      -44.00430000     -33.95260000     -68.37650000
H      -40.73700000     -35.01740000     -70.99360000
H      -40.17960000     -32.58380000     -71.35780000
C      -42.86700000     -36.10820000     -69.77920000
H      -43.47560000     -36.35500000     -68.92150000
H      -41.94800000     -36.72490000     -69.65660000
C      -43.39520000     -31.16180000     -68.38990000
H      -42.86610000     -31.06100000     -67.36190000
H      -43.24420000     -30.20600000     -68.99780000
S      -43.58670000     -36.84810000     -71.32330000
S      -45.18840000     -31.43360000     -68.03940000
C      -45.12550000     -35.90660000     -71.72390000
H      -45.81620000     -36.49290000     -72.36810000
H      -45.74180000     -35.86020000     -70.74940000
C      -45.79100000     -31.34840000     -69.77980000
H      -44.98930000     -31.55130000     -70.55770000
H      -46.16700000     -30.34290000     -70.00050000
C      -46.78580000     -32.51790000     -70.09200000
H      -46.12840000     -33.42080000     -70.08770000
H      -47.48440000     -32.56400000     -69.18630000
C      -44.84330000     -34.57700000     -72.30240000
H      -44.09360000     -34.83220000     -73.04180000
H      -44.43060000     -33.78320000     -71.58920000
C      -46.05070000     -34.01570000     -73.06690000
C      -46.24480000     -34.34690000     -74.40770000
C      -47.05640000     -33.06450000     -72.61310000
H      -45.60480000     -34.94010000     -74.94140000
C      -48.00440000     -32.88040000     -73.62410000
C      -47.47230000     -32.47140000     -71.37050000
C      -48.61360000     -31.70920000     -71.53380000
S      -47.76330000     -33.70110000     -75.12870000
S      -49.30240000     -31.84500000     -73.15190000
H      -49.10460000     -31.18660000     -70.77690000
