40
Properties=species:S:1:pos:R:3 #=T CELL(abcABC):=T 1.889726e+02=T 90.00000=T Traj:=T positionsangstrom=T Step:=T 0=T Bead:=T pbc="F F F"
C      -46.72480000     -31.66540000     -70.56040000
C      -45.63870000     -31.91930000     -69.62370000
C      -44.32390000     -31.71530000     -70.02760000
C      -44.03780000     -31.22630000     -71.34760000
C      -45.09620000     -31.07910000     -72.28470000
C      -46.38310000     -31.21930000     -71.81540000
H      -47.74820000     -31.57480000     -70.11190000
H      -43.52420000     -31.80290000     -69.33390000
H      -44.68850000     -30.75210000     -73.27160000
H      -47.24820000     -31.05510000     -72.47010000
C      -42.65840000     -31.02640000     -71.84220000
H      -42.24270000     -30.27230000     -71.16640000
H      -42.60580000     -30.65460000     -72.84820000
C      -45.94100000     -32.30480000     -68.16830000
H      -45.05160000     -32.62190000     -67.59910000
H      -46.48370000     -31.44930000     -67.74660000
S      -41.67790000     -32.55780000     -71.96450000
S      -47.15020000     -33.64890000     -67.84830000
C      -42.45860000     -33.89470000     -70.97140000
H      -41.74270000     -34.30600000     -70.30840000
H      -43.32920000     -33.59880000     -70.40270000
C      -46.30340000     -35.22560000     -68.20070000
H      -47.08960000     -35.98850000     -68.28460000
H      -45.73890000     -35.60580000     -67.32230000
C      -45.48310000     -35.36750000     -69.56360000
H      -44.49240000     -34.94830000     -69.35650000
H      -45.37040000     -36.41140000     -69.86140000
C      -42.98340000     -34.99080000     -71.92040000
H      -43.21250000     -35.82140000     -71.29360000
H      -42.15370000     -35.30980000     -72.61930000
C      -44.25490000     -34.61130000     -72.67460000
C      -44.19500000     -34.24350000     -73.98610000
C      -45.58890000     -34.64780000     -72.12660000
H      -43.26920000     -34.32420000     -74.61220000
C      -46.51700000     -34.24170000     -73.11860000
C      -46.23070000     -34.87710000     -70.81250000
C      -47.59670000     -34.79810000     -70.92810000
S      -45.77510000     -33.81050000     -74.67500000
S      -48.14680000     -34.16880000     -72.44600000
H      -48.23280000     -35.03850000     -70.10340000
