40
Properties=species:S:1:pos:R:3 #=T CELL(abcABC):=T 1.889726e+02=T 90.00000=T Traj:=T positionsangstrom=T Step:=T 0=T Bead:=T pbc="F F F"
C      -46.85340000     -31.71730000     -70.52970000
C      -45.79190000     -31.73450000     -69.55360000
C      -44.51780000     -31.36700000     -69.91710000
C      -44.15600000     -31.10390000     -71.23610000
C      -45.21430000     -31.00930000     -72.22140000
C      -46.53620000     -31.27570000     -71.82010000
H      -47.77690000     -32.13630000     -70.33500000
H      -43.66210000     -31.43290000     -69.16690000
H      -44.78190000     -30.72520000     -73.16960000
H      -47.32820000     -31.23640000     -72.56630000
C      -42.75140000     -30.84800000     -71.63140000
H      -42.19320000     -30.25990000     -70.89820000
H      -42.68700000     -30.25990000     -72.58790000
C      -45.98100000     -32.24890000     -68.10420000
H      -45.05980000     -32.73400000     -67.67380000
H      -46.31430000     -31.49720000     -67.33700000
S      -41.66510000     -32.40090000     -72.03690000
S      -47.17980000     -33.70290000     -68.05830000
C      -42.26360000     -33.82920000     -70.99690000
H      -41.34590000     -34.23040000     -70.49210000
H      -42.99120000     -33.48700000     -70.17080000
C      -46.09310000     -35.16420000     -68.25760000
H      -46.81470000     -35.90460000     -67.98840000
H      -45.30100000     -35.10970000     -67.49960000
C      -45.34380000     -35.23000000     -69.62480000
H      -44.47910000     -34.52290000     -69.62460000
H      -44.90830000     -36.21800000     -69.75190000
C      -42.88730000     -35.00910000     -71.85100000
H      -43.11530000     -35.80630000     -71.11910000
H      -42.17110000     -35.43900000     -72.52480000
C      -44.19610000     -34.59980000     -72.62340000
C      -44.18400000     -34.36160000     -73.96540000
C      -45.55450000     -34.64360000     -72.04360000
H      -43.28350000     -34.36310000     -74.56560000
C      -46.47180000     -34.26740000     -73.10050000
C      -46.17290000     -34.87990000     -70.82290000
C      -47.56350000     -34.92040000     -70.95210000
S      -45.77090000     -34.07300000     -74.63140000
S      -48.14800000     -34.36350000     -72.51610000
H      -48.17840000     -34.96020000     -70.00300000
