40
Properties=species:S:1:pos:R:3 #=T CELL(abcABC):=T 1.889726e+02=T 90.00000=T Traj:=T positionsangstrom=T Step:=T 0=T Bead:=T pbc="F F F"
C      -46.78040000     -31.42690000     -70.46770000
C      -45.94180000     -31.48550000     -69.36180000
C      -44.57890000     -31.22970000     -69.51180000
C      -44.12000000     -30.71000000     -70.69290000
C      -45.03860000     -30.53500000     -71.78570000
C      -46.36240000     -30.93040000     -71.69900000
H      -47.78320000     -31.92310000     -70.27430000
H      -43.94740000     -31.45880000     -68.72360000
H      -44.64010000     -30.06060000     -72.69310000
H      -46.94810000     -30.90870000     -72.60960000
C      -42.65970000     -30.58400000     -71.06000000
H      -41.95900000     -30.70200000     -70.25260000
H      -42.33120000     -29.65640000     -71.49920000
C      -46.36320000     -32.04240000     -68.01420000
H      -45.44590000     -32.19320000     -67.38100000
H      -47.06970000     -31.47510000     -67.48000000
S      -42.24020000     -31.88760000     -72.37790000
S      -47.31370000     -33.65700000     -68.13520000
C      -42.20120000     -33.39700000     -71.38660000
H      -41.24400000     -33.54280000     -70.99530000
H      -42.93740000     -33.23800000     -70.53530000
C      -46.02200000     -34.92390000     -68.26360000
H      -46.52180000     -35.86130000     -68.17070000
H      -45.30870000     -34.97900000     -67.42290000
C      -45.18420000     -34.78670000     -69.53630000
H      -44.80800000     -33.72750000     -69.66590000
H      -44.30560000     -35.42890000     -69.48540000
C      -42.71330000     -34.60920000     -72.08690000
H      -42.77260000     -35.36980000     -71.31790000
H      -41.91570000     -34.91420000     -72.77410000
C      -44.09420000     -34.50080000     -72.77730000
C      -44.13720000     -34.41800000     -74.12120000
C      -45.38120000     -34.86520000     -72.18050000
H      -43.35440000     -34.43140000     -74.86500000
C      -46.37540000     -35.00430000     -73.12510000
C      -45.94250000     -35.05220000     -70.82080000
C      -47.29350000     -35.35190000     -70.88040000
S      -45.79530000     -34.67610000     -74.78240000
S      -47.95490000     -35.35390000     -72.54010000
H      -47.91470000     -35.63090000     -70.10270000
