40
Properties=species:S:1:pos:R:3 #=T CELL(abcABC):=T 1.889726e+02=T 90.00000=T Traj:=T positionsangstrom=T Step:=T 0=T Bead:=T pbc="F F F"
C      -47.23070000     -31.12620000     -70.15330000
C      -46.17080000     -31.45980000     -69.27810000
C      -44.83360000     -31.14750000     -69.61830000
C      -44.52880000     -30.61810000     -70.89550000
C      -45.59170000     -30.29360000     -71.69300000
C      -46.90200000     -30.51100000     -71.35720000
H      -48.23010000     -31.20470000     -69.92750000
H      -43.96740000     -31.37750000     -68.90470000
H      -45.30940000     -30.03930000     -72.71840000
H      -47.74610000     -30.33950000     -72.05470000
C      -43.10360000     -30.29480000     -71.17340000
H      -42.64130000     -30.35360000     -70.19550000
H      -42.83260000     -29.31390000     -71.56050000
C      -46.43800000     -32.14650000     -67.95110000
H      -45.52570000     -32.28160000     -67.42730000
H      -47.08450000     -31.50080000     -67.32110000
S      -42.20910000     -31.57640000     -72.19860000
S      -47.18050000     -33.80780000     -68.19780000
C      -42.36400000     -33.18100000     -71.17870000
H      -41.47360000     -33.20250000     -70.57620000
H      -43.26960000     -33.02710000     -70.68780000
C      -45.80440000     -34.99990000     -68.37330000
H      -46.27070000     -36.00220000     -68.12020000
H      -45.10040000     -34.84010000     -67.51700000
C      -45.02030000     -34.95950000     -69.67000000
H      -44.51110000     -33.96200000     -69.75420000
H      -44.23960000     -35.73340000     -69.66370000
C      -42.62150000     -34.44180000     -72.05660000
H      -42.40760000     -35.23970000     -71.35330000
H      -41.82620000     -34.44730000     -72.78890000
C      -43.95490000     -34.53160000     -72.79880000
C      -43.93450000     -34.62270000     -74.15930000
C      -45.23690000     -34.81710000     -72.21790000
H      -43.12030000     -34.30200000     -74.87410000
C      -46.21220000     -35.04770000     -73.21650000
C      -45.79450000     -35.13110000     -70.91130000
C      -47.10410000     -35.51700000     -71.04080000
S      -45.48530000     -35.05830000     -74.85800000
S      -47.74550000     -35.58880000     -72.61420000
H      -47.65750000     -35.79380000     -70.09330000
