40
Properties=species:S:1:pos:R:3 #=T CELL(abcABC):=T 1.889726e+02=T 90.00000=T Traj:=T positionsangstrom=T Step:=T 0=T Bead:=T pbc="F F F"
C      -48.37060000     -35.59510000     -69.41390000
C      -48.49800000     -34.81470000     -70.63400000
C      -48.44850000     -33.41220000     -70.58450000
C      -48.11050000     -32.71250000     -69.38780000
C      -48.01230000     -33.52390000     -68.18600000
C      -48.17530000     -34.90540000     -68.18360000
H      -48.46170000     -36.64190000     -69.37740000
H      -48.57300000     -32.75620000     -71.46300000
H      -47.78080000     -32.95350000     -67.27840000
H      -47.94140000     -35.43580000     -67.26350000
C      -48.16580000     -31.18550000     -69.42270000
H      -47.86400000     -30.69620000     -68.52060000
H      -49.18870000     -30.74620000     -69.65520000
C      -48.76690000     -35.53120000     -72.00250000
H      -48.48430000     -36.64140000     -71.92570000
H      -49.80340000     -35.43690000     -72.30220000
S      -47.25090000     -30.51870000     -70.83200000
S      -47.73170000     -34.75270000     -73.33060000
C      -45.58520000     -31.26050000     -70.59490000
H      -44.97040000     -30.65530000     -69.91770000
H      -45.72250000     -32.21970000     -70.11300000
C      -46.04780000     -34.73660000     -72.64170000
H      -45.90010000     -35.70360000     -72.20190000
H      -45.88450000     -34.14160000     -71.70740000
C      -44.89630000     -34.50970000     -73.59200000
H      -44.87130000     -35.27340000     -74.29940000
H      -45.01160000     -33.55120000     -74.14590000
C      -44.85610000     -31.46350000     -71.91550000
H      -44.79650000     -30.55820000     -72.54270000
H      -45.45030000     -32.20370000     -72.62870000
C      -43.46630000     -31.97340000     -71.67440000
C      -42.51430000     -31.25420000     -71.01140000
C      -42.96460000     -33.26000000     -72.20990000
H      -42.71220000     -30.31000000     -70.46130000
C      -41.68760000     -33.46950000     -71.70250000
C      -43.55130000     -34.44350000     -72.86160000
C      -42.67260000     -35.48040000     -72.84530000
S      -40.97120000     -32.09670000     -70.87480000
S      -41.15620000     -35.11270000     -71.98890000
H      -42.78100000     -36.50020000     -73.17650000
