40
Properties=species:S:1:pos:R:3 #=T CELL(abcABC):=T 1.889726e+02=T 90.00000=T Traj:=T positionsangstrom=T Step:=T 0=T Bead:=T pbc="F F F"
C      -41.35130000     -33.03190000     -70.33850000
C      -42.30680000     -33.00040000     -69.36250000
C      -43.03790000     -34.17040000     -69.05930000
C      -42.99090000     -35.29270000     -69.85550000
C      -41.90770000     -35.42420000     -70.78850000
C      -41.13980000     -34.25340000     -71.04850000
H      -40.74440000     -32.19290000     -70.70960000
H      -43.75200000     -34.06090000     -68.26700000
H      -41.71090000     -36.34850000     -71.20520000
H      -40.32720000     -34.38750000     -71.87070000
C      -43.87690000     -36.54600000     -69.46020000
H      -44.52990000     -36.29140000     -68.58510000
H      -43.25500000     -37.36460000     -69.03810000
C      -42.62390000     -31.75430000     -68.56540000
H      -42.21180000     -31.88050000     -67.59550000
H      -42.11720000     -30.83880000     -68.95570000
S      -44.94090000     -37.15580000     -70.79310000
S      -44.49430000     -31.50740000     -68.30960000
C      -45.96490000     -35.73900000     -71.50330000
H      -46.59270000     -36.38110000     -72.21730000
H      -46.71930000     -35.36310000     -70.78620000
C      -45.08840000     -31.48990000     -70.02410000
H      -44.27390000     -31.99590000     -70.58510000
H      -45.12360000     -30.46210000     -70.36710000
C      -46.45750000     -32.19510000     -70.15620000
H      -46.18110000     -33.25070000     -70.00080000
H      -47.00340000     -31.98810000     -69.26720000
C      -45.21640000     -34.54500000     -72.14830000
H      -44.48840000     -34.99410000     -72.89100000
H      -44.73680000     -33.90210000     -71.36460000
C      -46.23520000     -33.82660000     -72.98230000
C      -46.52630000     -34.15200000     -74.27680000
C      -47.08560000     -32.74960000     -72.59690000
H      -46.33900000     -35.09190000     -74.80910000
C      -47.85830000     -32.18730000     -73.60710000
C      -47.14190000     -31.92280000     -71.41320000
C      -47.86650000     -30.75470000     -71.62540000
S      -47.74580000     -33.14420000     -75.03990000
S      -48.65490000     -30.71980000     -73.20480000
H      -48.16760000     -30.07150000     -70.87000000
