40
Properties=species:S:1:pos:R:3 #=T CELL(abcABC):=T 1.889726e+02=T 90.00000=T Traj:=T positionsangstrom=T Step:=T 0=T Bead:=T pbc="F F F"
C      -47.70640000     -31.98130000     -69.71050000
C      -46.54200000     -31.84970000     -68.89720000
C      -45.54620000     -31.09190000     -69.56140000
C      -45.71210000     -30.35520000     -70.73500000
C      -46.95590000     -30.40120000     -71.36210000
C      -48.04680000     -31.22230000     -70.85390000
H      -48.48260000     -32.64380000     -69.44090000
H      -44.58420000     -31.00260000     -69.01020000
H      -46.97810000     -29.86320000     -72.31590000
H      -48.84760000     -31.53480000     -71.47940000
C      -44.38570000     -29.77700000     -71.38680000
H      -43.78380000     -29.40370000     -70.53620000
H      -44.64340000     -28.93030000     -72.00280000
C      -46.41880000     -32.70490000     -67.66960000
H      -45.39220000     -32.73430000     -67.23300000
H      -47.19620000     -32.45580000     -66.99480000
S      -43.72110000     -31.12070000     -72.51380000
S      -46.67580000     -34.54580000     -68.12370000
C      -42.79910000     -32.19520000     -71.39250000
H      -41.91240000     -31.68070000     -70.95010000
H      -43.35020000     -32.41800000     -70.46550000
C      -45.03260000     -35.35390000     -68.46910000
H      -45.28540000     -36.37660000     -68.43580000
H      -44.49440000     -35.09570000     -67.50160000
C      -44.27530000     -34.96480000     -69.69260000
H      -44.00730000     -33.89460000     -69.59960000
H      -43.35380000     -35.48640000     -69.69090000
C      -42.28020000     -33.50390000     -72.12700000
H      -41.84780000     -34.18650000     -71.36150000
H      -41.42000000     -33.19380000     -72.69510000
C      -43.34050000     -34.10000000     -72.93600000
C      -43.47910000     -34.06680000     -74.25690000
C      -44.56700000     -34.69600000     -72.33400000
H      -42.76380000     -33.55090000     -74.83690000
C      -45.48000000     -35.04660000     -73.33030000
C      -45.03410000     -35.15680000     -70.99470000
C      -46.28520000     -35.65490000     -71.03550000
S      -44.92560000     -34.76680000     -74.95480000
S      -46.84470000     -35.94730000     -72.67570000
H      -46.88580000     -36.02960000     -70.17350000
