40
Properties=species:S:1:pos:R:3 #=T CELL(abcABC):=T 1.889726e+02=T 90.00000=T Traj:=T positionsangstrom=T Step:=T 0=T Bead:=T pbc="F F F"
C      -47.67950000     -31.57540000     -68.46900000
C      -46.29130000     -31.84720000     -68.41480000
C      -45.84520000     -33.19680000     -68.46750000
C      -46.74810000     -34.27050000     -68.47150000
C      -48.08950000     -33.96580000     -68.46030000
C      -48.55460000     -32.67810000     -68.43940000
H      -48.05460000     -30.61700000     -68.34910000
H      -44.80780000     -33.30360000     -68.44050000
H      -48.78600000     -34.80330000     -68.39780000
H      -49.65750000     -32.58060000     -68.48500000
C      -46.27300000     -35.72130000     -68.44050000
H      -46.59070000     -36.22530000     -67.53550000
H      -45.11320000     -35.70680000     -68.50390000
C      -45.32030000     -30.71970000     -68.36010000
H      -45.66210000     -30.00660000     -69.11010000
H      -45.24540000     -30.15310000     -67.45910000
S      -46.92960000     -36.70280000     -69.90260000
S      -43.54520000     -31.21390000     -68.72440000
C      -45.86950000     -35.89870000     -71.21690000
H      -44.86750000     -35.63220000     -70.73960000
H      -45.83370000     -36.56520000     -72.02830000
C      -43.29490000     -30.97940000     -70.56890000
H      -42.28000000     -30.79490000     -70.76300000
H      -43.76770000     -30.12890000     -71.09980000
C      -43.83720000     -32.28830000     -71.17320000
H      -43.35700000     -33.14270000     -70.71900000
H      -44.88160000     -32.35480000     -70.86010000
C      -46.42100000     -34.51740000     -71.84150000
H      -46.24060000     -33.71800000     -71.09410000
H      -47.48420000     -34.65440000     -72.13410000
C      -45.79960000     -34.24780000     -73.15160000
C      -46.29040000     -34.81760000     -74.25510000
C      -44.65960000     -33.33370000     -73.40970000
H      -47.17820000     -35.42810000     -74.28090000
C      -44.30940000     -33.35890000     -74.72880000
C      -43.85510000     -32.48290000     -72.66120000
C      -42.87520000     -31.85480000     -73.40650000
S      -45.07490000     -34.63740000     -75.61160000
S      -43.03980000     -32.26850000     -75.13010000
H      -42.40900000     -30.95490000     -73.17700000
