40
Properties=species:S:1:pos:R:3 #=T CELL(abcABC):=T 1.889726e+02=T 90.00000=T Traj:=T positionsangstrom=T Step:=T 0=T Bead:=T pbc="F F F"
C      -44.59200000     -30.07000000     -68.74990000
C      -44.28050000     -31.00970000     -69.75520000
C      -44.89940000     -30.81120000     -71.01950000
C      -45.77040000     -29.78050000     -71.22480000
C      -46.16980000     -28.90490000     -70.19660000
C      -45.55250000     -29.05090000     -68.95790000
H      -44.02730000     -30.27250000     -67.80750000
H      -44.53540000     -31.49450000     -71.83510000
H      -46.82810000     -28.05610000     -70.43140000
H      -45.78810000     -28.35250000     -68.18870000
C      -46.40810000     -29.64280000     -72.63130000
H      -45.61510000     -29.77810000     -73.43010000
H      -46.74620000     -28.67870000     -72.81540000
C      -43.40040000     -32.25650000     -69.53890000
H      -43.10070000     -32.70560000     -70.49520000
H      -42.61150000     -31.93430000     -68.90480000
S      -47.83790000     -30.86390000     -73.00970000
S      -44.31570000     -33.66900000     -68.66590000
C      -47.04480000     -32.43000000     -73.69580000
H      -47.86460000     -32.79110000     -74.28630000
H      -46.26360000     -32.18390000     -74.40470000
C      -46.08370000     -33.52560000     -69.22320000
H      -46.09260000     -32.88900000     -70.08610000
H      -46.69620000     -33.14510000     -68.38110000
C      -46.50490000     -34.95680000     -69.55910000
H      -46.78510000     -35.49740000     -68.64940000
H      -47.45120000     -34.83780000     -70.07160000
C      -46.62670000     -33.35800000     -72.55260000
H      -47.50020000     -33.78310000     -72.14310000
H      -46.36310000     -32.78340000     -71.64630000
C      -45.68560000     -34.50390000     -72.88460000
C      -45.10930000     -34.81120000     -74.07660000
C      -45.30820000     -35.55490000     -71.87240000
H      -45.33860000     -34.34550000     -74.99560000
C      -44.34990000     -36.44540000     -72.41190000
C      -45.52410000     -35.72140000     -70.46200000
C      -44.69040000     -36.73560000     -70.04960000
S      -44.11330000     -36.26860000     -74.12500000
S      -43.76510000     -37.59420000     -71.26820000
H      -44.53420000     -37.09910000     -69.08050000
