40
Properties=species:S:1:pos:R:3 #=T CELL(abcABC):=T 1.889726e+02=T 90.00000=T Traj:=T positionsangstrom=T Step:=T 0=T Bead:=T pbc="F F F"
C      -47.91100000     -32.43270000     -69.90470000
C      -46.66410000     -32.39720000     -69.23620000
C      -45.75060000     -31.40400000     -69.64530000
C      -45.78900000     -30.68130000     -70.82720000
C      -46.99370000     -30.79730000     -71.57800000
C      -47.94970000     -31.63670000     -71.08780000
H      -48.68090000     -33.14450000     -69.66100000
H      -44.97280000     -31.16400000     -68.92740000
H      -47.29670000     -30.31330000     -72.53230000
H      -48.88770000     -31.62870000     -71.66480000
C      -44.66940000     -29.68930000     -71.15060000
H      -44.18400000     -29.38980000     -70.18670000
H      -45.12560000     -28.85430000     -71.59600000
C      -46.47760000     -33.11140000     -67.93900000
H      -45.51480000     -32.94760000     -67.55750000
H      -47.23400000     -32.79190000     -67.20930000
S      -43.45860000     -30.58300000     -72.31900000
S      -46.85710000     -34.89990000     -67.98830000
C      -42.75390000     -31.85860000     -71.13740000
H      -41.96640000     -31.60390000     -70.52730000
H      -43.52920000     -32.17250000     -70.43380000
C      -45.06300000     -35.51370000     -68.42970000
H      -45.18360000     -36.55370000     -68.54810000
H      -44.51540000     -35.28710000     -67.44390000
C      -44.47820000     -34.87850000     -69.66120000
H      -44.38560000     -33.81880000     -69.47560000
H      -43.44060000     -35.31400000     -69.75400000
C      -42.37550000     -33.11350000     -71.86350000
H      -42.01700000     -33.85330000     -71.12400000
H      -41.58290000     -32.87320000     -72.49550000
C      -43.46960000     -33.72660000     -72.71500000
C      -43.48620000     -33.45700000     -74.06980000
C      -44.51460000     -34.58130000     -72.28000000
H      -42.91090000     -32.74330000     -74.57410000
C      -45.42460000     -34.86760000     -73.37660000
C      -45.03020000     -35.15380000     -71.04880000
C      -46.02930000     -36.04900000     -71.24450000
S      -44.77800000     -34.31190000     -74.89090000
S      -46.63540000     -36.10210000     -72.91480000
H      -46.50510000     -36.79240000     -70.58090000
