40
Properties=species:S:1:pos:R:3 #=T CELL(abcABC):=T 1.889726e+02=T 90.00000=T Traj:=T positionsangstrom=T Step:=T 0=T Bead:=T pbc="F F F"
C      -47.53650000     -33.18470000     -70.63040000
C      -46.82940000     -32.69170000     -69.51960000
C      -46.11650000     -31.53550000     -69.57100000
C      -45.99050000     -30.89160000     -70.82070000
C      -46.62110000     -31.40010000     -71.93280000
C      -47.42800000     -32.54080000     -71.82420000
H      -48.07040000     -34.07920000     -70.52480000
H      -45.53180000     -31.08680000     -68.76700000
H      -46.49540000     -30.92450000     -72.86680000
H      -48.10470000     -32.87240000     -72.65010000
C      -45.03080000     -29.68160000     -70.90120000
H      -45.04350000     -29.31610000     -69.78530000
H      -45.40170000     -28.86970000     -71.54710000
C      -46.91730000     -33.33950000     -68.14800000
H      -46.23150000     -32.88770000     -67.41650000
H      -47.96150000     -33.26950000     -67.80100000
S      -43.39340000     -30.23890000     -71.56350000
S      -46.71770000     -35.21290000     -68.11790000
C      -42.80300000     -31.82520000     -70.82880000
H      -41.96020000     -31.50290000     -70.16450000
H      -43.64890000     -32.11050000     -70.12470000
C      -44.95390000     -35.62470000     -68.58560000
H      -44.89230000     -36.65900000     -68.88620000
H      -44.38170000     -35.52200000     -67.64080000
C      -44.41310000     -34.76820000     -69.65420000
H      -44.40750000     -33.72740000     -69.31640000
H      -43.37830000     -35.04180000     -69.78180000
C      -42.43730000     -32.87720000     -71.85340000
H      -41.79190000     -33.70340000     -71.30070000
H      -41.76600000     -32.38020000     -72.55280000
C      -43.53360000     -33.43430000     -72.66910000
C      -43.65080000     -33.02880000     -74.00340000
C      -44.55460000     -34.40360000     -72.27100000
H      -43.00460000     -32.39910000     -74.57070000
C      -45.35010000     -34.75360000     -73.39140000
C      -44.98560000     -34.99080000     -71.01730000
C      -46.01990000     -35.87110000     -71.20720000
S      -44.92420000     -33.94870000     -74.86320000
S      -46.54750000     -35.88560000     -72.89740000
H      -46.44090000     -36.52660000     -70.47300000
