40
Properties=species:S:1:pos:R:3 #=T CELL(abcABC):=T 1.889726e+02=T 90.00000=T Traj:=T positionsangstrom=T Step:=T 0=T Bead:=T pbc="F F F"
C      -47.57730000     -33.37660000     -70.78270000
C      -47.10230000     -32.87950000     -69.60660000
C      -46.22520000     -31.80470000     -69.64760000
C      -46.02420000     -31.08200000     -70.81630000
C      -46.64910000     -31.54900000     -72.03430000
C      -47.41490000     -32.70820000     -71.98940000
H      -48.09340000     -34.35420000     -70.62310000
H      -45.68040000     -31.50230000     -68.76380000
H      -46.44540000     -31.04550000     -73.00310000
H      -47.72340000     -33.11330000     -72.93410000
C      -45.09780000     -29.88740000     -70.85350000
H      -44.82360000     -29.72380000     -69.82950000
H      -45.70700000     -29.02630000     -71.31030000
C      -47.28690000     -33.56350000     -68.26560000
H      -46.67140000     -33.22770000     -67.45120000
H      -48.34680000     -33.53010000     -68.01040000
S      -43.49550000     -30.18960000     -71.72980000
S      -46.89900000     -35.34680000     -68.42100000
C      -42.58890000     -31.43080000     -70.73610000
H      -41.59710000     -30.93180000     -70.55040000
H      -43.07420000     -31.64850000     -69.75810000
C      -45.04090000     -35.41880000     -68.44140000
H      -44.83200000     -36.52730000     -68.32540000
H      -44.68320000     -34.93060000     -67.55970000
C      -44.27120000     -34.81060000     -69.66970000
H      -44.34720000     -33.80950000     -69.46310000
H      -43.22670000     -35.01140000     -69.56460000
C      -42.38060000     -32.71630000     -71.53250000
H      -42.10650000     -33.43020000     -70.80090000
H      -41.45260000     -32.51660000     -72.20700000
C      -43.53990000     -33.26260000     -72.35640000
C      -43.65700000     -32.74030000     -73.64240000
C      -44.46930000     -34.31550000     -72.15480000
H      -43.11000000     -31.89490000     -73.93830000
C      -45.16830000     -34.69330000     -73.25930000
C      -44.84560000     -35.12620000     -71.02640000
C      -45.80550000     -36.12530000     -71.30800000
S      -44.93770000     -33.52900000     -74.57790000
S      -46.26920000     -35.97400000     -73.02490000
H      -46.32030000     -36.78700000     -70.57950000
