40
Properties=species:S:1:pos:R:3 #=T CELL(abcABC):=T 1.889726e+02=T 90.00000=T Traj:=T positionsangstrom=T Step:=T 0=T Bead:=T pbc="F F F"
C      -45.29360000     -29.76600000     -68.65350000
C      -44.47300000     -30.53300000     -69.47920000
C      -44.57000000     -30.49260000     -70.87750000
C      -45.60820000     -29.78920000     -71.46850000
C      -46.39700000     -29.00370000     -70.66460000
C      -46.26490000     -28.96660000     -69.30010000
H      -45.03520000     -29.73480000     -67.61140000
H      -43.95420000     -31.13820000     -71.48840000
H      -47.08690000     -28.37550000     -71.27010000
H      -46.88790000     -28.35310000     -68.65690000
C      -45.99240000     -29.95550000     -72.92350000
H      -45.18340000     -30.34710000     -73.57140000
H      -46.24340000     -28.92660000     -73.32160000
C      -43.43470000     -31.35920000     -68.79720000
H      -42.39410000     -31.31950000     -69.24640000
H      -43.39640000     -31.03300000     -67.75840000
S      -47.39580000     -31.06100000     -73.06570000
S      -43.84740000     -33.17440000     -68.67930000
C      -46.38780000     -32.57400000     -72.94030000
H      -45.61350000     -32.60690000     -73.72820000
H      -45.91430000     -32.42470000     -72.00390000
C      -45.55440000     -33.15260000     -69.29510000
H      -45.60550000     -32.49510000     -70.17450000
H      -46.30840000     -32.60820000     -68.69020000
C      -46.12220000     -34.58180000     -69.65610000
H      -46.29340000     -34.99240000     -68.64030000
H      -47.11760000     -34.49140000     -70.10780000
C      -47.13350000     -33.91140000     -72.98150000
H      -47.91690000     -33.95620000     -73.77800000
H      -47.70940000     -33.96930000     -72.00120000
C      -46.13710000     -35.05050000     -73.06070000
C      -45.99100000     -35.76050000     -74.23400000
C      -45.46870000     -35.64090000     -71.95800000
H      -46.39300000     -35.51480000     -75.21800000
C      -44.64380000     -36.68840000     -72.38670000
C      -45.29820000     -35.50080000     -70.53680000
C      -44.43380000     -36.43050000     -70.01030000
S      -44.69230000     -36.90660000     -74.09210000
S      -43.67200000     -37.46540000     -71.14140000
H      -44.24930000     -36.51970000     -68.95190000
