40
Properties=species:S:1:pos:R:3 #=T CELL(abcABC):=T 1.889726e+02=T 90.00000=T Traj:=T positionsangstrom=T Step:=T 0=T Bead:=T pbc="F F F"
C      -45.13890000     -29.53630000     -68.65560000
C      -44.34980000     -30.33590000     -69.52340000
C      -44.54020000     -30.24700000     -70.90630000
C      -45.72500000     -29.69050000     -71.45630000
C      -46.53390000     -29.01490000     -70.58230000
C      -46.25880000     -28.87200000     -69.16810000
H      -44.92730000     -29.59990000     -67.55720000
H      -43.89170000     -30.79960000     -71.53150000
H      -47.50780000     -28.62140000     -70.95610000
H      -46.94740000     -28.37100000     -68.55790000
C      -46.04090000     -29.89960000     -72.95520000
H      -45.17190000     -30.28780000     -73.45630000
H      -46.39750000     -28.98110000     -73.37520000
C      -43.32810000     -31.24500000     -68.93610000
H      -42.48450000     -31.29900000     -69.68160000
H      -42.96010000     -30.96620000     -67.96100000
S      -47.23950000     -31.31070000     -73.06560000
S      -43.89220000     -33.02220000     -68.79300000
C      -46.27890000     -32.79350000     -73.04060000
H      -45.72390000     -32.85230000     -74.00740000
H      -45.56860000     -32.73950000     -72.18270000
C      -45.61520000     -33.09450000     -69.38390000
H      -45.61080000     -32.50320000     -70.27210000
H      -46.25110000     -32.61300000     -68.60050000
C      -46.13260000     -34.51500000     -69.54840000
H      -46.14160000     -35.06520000     -68.60510000
H      -47.16540000     -34.38820000     -69.87050000
C      -47.20340000     -33.99650000     -72.93280000
H      -47.86140000     -33.94240000     -73.79890000
H      -47.74020000     -34.08450000     -72.01270000
C      -46.23970000     -35.18800000     -73.04680000
C      -45.95630000     -35.76200000     -74.29230000
C      -45.52790000     -35.73680000     -71.92930000
H      -46.39760000     -35.48830000     -75.24130000
C      -44.65140000     -36.74130000     -72.36580000
C      -45.41140000     -35.49960000     -70.44560000
C      -44.47800000     -36.35380000     -69.93820000
S      -44.70350000     -37.02900000     -74.06850000
S      -43.70530000     -37.47980000     -71.08610000
H      -44.23250000     -36.31280000     -68.83410000
